*SPEF "IEEE 1481-1998"
*DESIGN "ycell"
*DATE "Wed Dec 02 22:57:31 2020"
*VENDOR "AUC CSCE Department"
*PROGRAM "SPEF Extractor"
*VERSION "1.0"
*DESIGN_FLOW "PIN_CAP NONE"
*DIVIDER /
*DELIMITER :
*BUS_DELIMITER []
*T_UNIT 1.00000 NS
*C_UNIT 1.00000 PF
*R_UNIT 1.00000 OHM
*L_UNIT 1.00000 HENRY


*NAME_MAP
*0 cbitin
*1 cbitout
*2 confclk
*3 dempty
*4 din[0]
*5 din[1]
*6 dout[0]
*7 dout[1]
*8 hempty
*9 lempty
*10 lin[0]
*11 lin[1]
*12 lout[0]
*13 lout[1]
*14 rempty
*15 reset
*16 rin[0]
*17 rin[1]
*18 rout[0]
*19 rout[1]
*20 uempty
*21 uin[0]
*22 uin[1]
*23 uout[0]
*24 uout[1]
*25 vempty
*26 _000_
*27 _001_
*28 _002_
*29 _003_
*30 _004_
*31 _005_
*32 _006_
*33 _007_
*34 _008_
*35 _009_
*36 _010_
*37 _011_
*38 _012_
*39 _013_
*40 _014_
*41 _015_
*42 _016_
*43 _017_
*44 _018_
*45 _019_
*46 _020_
*47 _021_
*48 _022_
*49 _023_
*50 _024_
*51 _025_
*52 _026_
*53 _027_
*54 _028_
*55 _029_
*56 _030_
*57 _031_
*58 _032_
*59 _033_
*60 _034_
*61 _035_
*62 _036_
*63 _037_
*64 _038_
*65 _039_
*66 _040_
*67 _041_
*68 _042_
*69 _043_
*70 _044_
*71 _045_
*72 _046_
*73 _047_
*74 _048_
*75 _049_
*76 _050_
*77 _051_
*78 _052_
*79 _053_
*80 _054_
*81 _055_
*82 _056_
*83 _057_
*84 _058_
*85 _059_
*86 _060_
*87 _061_
*88 _062_
*89 _063_
*90 _064_
*91 _065_
*92 _066_
*93 _067_
*94 _068_
*95 _069_
*96 _070_
*97 _071_
*98 _072_
*99 _073_
*100 _074_
*101 _075_
*102 _076_
*103 _077_
*104 _078_
*105 cfg.cnfg\[0\]
*106 cfg.cnfg\[1\]
*107 hfsm.clear
*108 hfsm.in\[1\]
*109 hfsm.lin\[0\]
*110 hfsm.lin\[1\]
*111 hfsm.lmatch\[0\]
*112 hfsm.lmatch\[1\]
*113 hfsm.nlmempty
*114 vfsm.clear
*115 vfsm.in\[1\]
*116 vfsm.lin\[0\]
*117 vfsm.lin\[1\]
*118 vfsm.lmatch\[0\]
*119 vfsm.lmatch\[1\]
*120 vfsm.nlmempty

*D_NET *0 0.0011194738969000002
*CONN
*P cbitin I
*I _182_:D I
*CAP
0 *0:1 8.932229792e-05
1 *0:2 0.0010301515989800001
2 _182_:D 0
*RES
0 *0:1 _182_:D 0.8214285714285714
1 *0:2 *0:3 11.687499999999998
2 _182_:D _182_:D 0
3 *0:1 *0:2 0
*END

*D_NET *1 0.00573808708742
*CONN
*P cbitout O
*I _184_:Q O
*I _096_:A I
*I _085_:A I
*CAP
3 *1:1 0.0013214599072599999
4 _096_:A 8.932229792e-05
5 *1:4 0.0016789746492400003
6 *1:6 0.0005960852944
7 *1:7 0.00051374141612
8 *1:9 0.00040117644959999997
9 *1:11 7.346055096e-05
10 *1:12 0.0010638665219200002
11 *1:3 0
12 *1:13 0
13 _085_:A 0
14 _184_:Q 0
15 *1:10 0
*RES
4 *1:1 *1:2 15.026785714285712
5 _096_:A *1:3 0.8214285714285714
6 *1:4 *1:5 19.125
7 *1:6 _085_:A 6.160714285714286
8 *1:7 *1:8 5.767857142857142
9 *1:9 *1:10 4.107142857142857
10 *1:11 *1:9 48.79999999999999
11 *1:12 *1:13 11.089285714285714
12 *1:12 *1:2 0
13 _096_:A _096_:A 0
14 *1:3 *1:5 0
15 *1:13 *1:4 0
16 _085_:A _085_:A 0
17 *1:6 *1:14 0
18 _184_:Q _184_:Q 0
19 _184_:Q *1:8 0
20 *1:10 *1:7 0
21 *1:9 *1:9 0
22 *1:11 *1:11 0
*END

*D_NET *2 0.0031832494095000007
*CONN
*P confclk I
*I _184_:CLK I
*I _183_:CLK I
*I _182_:CLK I
*CAP
16 *2:1 0.0010301515989800001
17 *2:3 0.00083153229788
18 _182_:CLK 0.00024643897664
19 _184_:CLK 8.932229792e-05
20 *2:7 0.00022243310784000002
21 *2:9 8.932229792e-05
22 *2:10 0.00067404883232
23 _183_:CLK 0
24 *2:5 0
25 *2:6 0
*RES
23 *2:1 *2:2 11.687499999999998
24 *2:3 *2:4 9.410714285714285
25 _182_:CLK *2:5 2.0535714285714284
26 _182_:CLK _182_:CLK 0.30357142857142855
27 _184_:CLK *2:6 0.8214285714285714
28 *2:7 *2:8 2.4285714285714284
29 *2:9 _183_:CLK 0.8214285714285714
30 *2:10 _182_:CLK 6.982142857142857
31 *2:10 *2:1 0
32 _182_:CLK _182_:CLK 0
33 _183_:CLK _183_:CLK 0
34 _183_:CLK *2:3 0
35 *2:5 *2:4 0
36 _184_:CLK _184_:CLK 0
37 *2:6 *2:7 0
38 *2:9 *2:8 0
*END

*D_NET *3 0.00107455539786
*CONN
*P dempty I
*I _093_:A I
*CAP
26 *3:1 0.0007123607172200001
27 _093_:A 0.0003621946806399999
28 *3:3 0
*RES
39 *3:1 *3:2 8.044642857142856
40 _093_:A *3:3 3.6964285714285707
41 *3:3 *3:2 0
42 _093_:A _093_:A 0
*END

*D_NET *4 0.0019081976135799999
*CONN
*P din[0] I
*I _111_:A I
*CAP
29 *4:1 0.0009469212150399999
30 *4:3 0.00014298538739999998
31 *4:5 0.00081829101114
32 _111_:A 0
33 *4:2 0
*RES
43 *4:1 *4:2 9.857142857142856
44 *4:3 *4:4 1.5178571428571426
45 *4:5 *4:6 9.25892857142857
46 _111_:A _111_:A 0
47 _111_:A *4:3 0
48 *4:1 *4:4 0
49 *4:2 *4:6 0
*END

*D_NET *5 0.00170672550594
*CONN
*P din[1] I
*I _100_:B1 I
*CAP
34 *5:1 0.00032836340175999997
35 *5:2 4.640188412000001e-05
36 _100_:B1 0.00075201237024
37 *5:3 0.00057994784982
38 *5:4 0
*RES
50 *5:1 *5:2 3.642857142857143
51 *5:2 *5:3 0.4107142857142857
52 _100_:B1 *5:4 7.803571428571428
53 *5:3 *5:5 6.5267857142857135
54 *5:4 *5:5 0
55 _100_:B1 _100_:B1 0
*END

*D_NET *6 0.0027837648333
*CONN
*P dout[0] O
*I _110_:B I
*I _109_:X O
*CAP
39 *6:1 0.00011806061236
40 *6:3 0.0006991194304800001
41 *6:4 0.00082997590816
42 *6:5 0.00014298538739999998
43 _109_:X 0.00044015821855999997
44 *6:2 0.00055346527634
45 _110_:B 0
46 *6:7 0
*RES
56 *6:1 *6:2 1.232142857142857
57 *6:3 *6:1 7.892857142857142
58 *6:4 _109_:X 8.625
59 *6:5 *6:6 1.5178571428571426
60 _109_:X *6:7 4.517857142857142
61 *6:2 *6:8 6.223214285714285
62 _109_:X _109_:X 0
63 *6:4 *6:8 0
64 _110_:B _110_:B 0
65 _110_:B *6:5 0
66 *6:7 *6:6 0
*END

*D_NET *7 0.00579005554254
*CONN
*P dout[1] O
*I _100_:A2 I
*I _099_:X O
*CAP
47 *7:1 0.00011806061236
48 *7:3 0.00048725884264
49 *7:4 4.017137184e-05
50 *7:5 0.00258415551136
51 *7:6 0.00028207627870000006
52 *7:9 0.00015622667414000004
53 *7:10 0.00016728583584
54 *7:12 4.017137184e-05
55 *7:13 0.00154656178184
56 *7:2 0.00036808726198
57 _100_:A2 0
58 _099_:X 0
59 *7:11 0
60 *7:16 0
*RES
67 *7:1 *7:2 1.232142857142857
68 *7:3 *7:1 5.4642857142857135
69 *7:4 _100_:A2 0.30357142857142855
70 *7:5 *7:4 27.107142857142854
71 *7:6 *7:7 2.580357142857143
72 *7:6 *7:8 0.4107142857142857
73 *7:9 *7:8 1.669642857142857
74 *7:10 *7:11 1.6428571428571428
75 *7:12 *7:10 0.30357142857142855
76 *7:13 *7:14 17.607142857142854
77 *7:2 *7:15 4.098214285714286
78 _100_:A2 _100_:A2 0
79 *7:5 *7:15 0
80 _099_:X _099_:X 0
81 _099_:X *7:7 0
82 *7:11 *7:9 0
83 *7:12 *7:14 0
84 *7:16 *7:13 0
*END

*D_NET *8 0.00521750337764
*CONN
*P hempty O
*I _181_:B I
*I _126_:B I
*I _125_:X O
*CAP
61 _125_:X 0.0005193113593599999
62 *8:1 0.00032836340175999997
63 *8:3 0.00270110081824
64 _181_:B 4.017137184e-05
65 *8:2 7.67789537e-05
66 *8:6 0.00016728583584
67 *8:7 0.0013844916368999996
68 _126_:B 0
69 *8:4 0
70 *8:5 0
*RES
85 _125_:X _126_:B 4.928571428571428
86 _125_:X _125_:X 0.30357142857142855
87 *8:1 *8:2 3.642857142857143
88 *8:3 *8:4 28.33928571428571
89 _181_:B *8:3 0.30357142857142855
90 *8:2 *8:5 0.7589285714285713
91 *8:6 _125_:X 1.6428571428571428
92 *8:7 *8:8 2.4863
93 _125_:X _125_:X 0
94 _126_:B _126_:B 0
95 *8:6 *8:1 0
96 *8:4 *8:2 0
97 _181_:B _181_:B 0
98 *8:5 *8:7 0
*END

*D_NET *9 0.00044935451211999995
*CONN
*P lempty I
*I _138_:A I
*CAP
71 *9:1 0.00039905813189999997
72 *9:3 5.029638022e-05
73 _138_:A 0
*RES
99 *9:1 *9:2 0.6846333333333334
100 *9:3 *9:4 0.45535714285714285
101 *9:3 *9:2 0
102 _138_:A _138_:A 0
103 _138_:A *9:4 0
*END

*D_NET *10 0.0029273114962000005
*CONN
*P lin[0] I
*I _139_:A I
*CAP
74 *10:1 0.0011085702555
75 _139_:A 4.017137184e-05
76 *10:3 0.00024524937376
77 *10:5 0.0015333204951000002
78 *10:6 0
79 *10:4 0
*RES
104 *10:1 *10:2 1.9818333333333336
105 _139_:A *10:3 0.30357142857142855
106 *10:3 *10:4 2.464285714285714
107 *10:5 *10:6 17.455357142857142
108 *10:6 *10:2 0
109 _139_:A _139_:A 0
110 *10:4 *10:5 0
*END

*D_NET *11 0.0008194975008
*CONN
*P lin[1] I
*I _165_:B I
*CAP
80 *11:1 0.0004778928123
81 *11:3 0.00034160468850000003
82 *11:4 0
83 _165_:B 0
*RES
111 *11:1 *11:2 0.8287666666666667
112 *11:3 *11:4 3.7946428571428568
113 *11:4 *11:2 0
114 _165_:B _165_:B 0
115 _165_:B *11:3 0
*END

*D_NET *12 0.00437263712278
*CONN
*P lout[0] O
*I _167_:C I
*I _166_:Y O
*CAP
84 *12:1 0.00024643897664
85 *12:3 7.67789537e-05
86 *12:5 0.00149266598048
87 *12:6 0.0010036690255000001
88 *12:8 0.0015027436575
89 *12:2 5.034052896000001e-05
90 *12:4 0
91 _166_:Y 0
92 *12:10 0
93 _167_:C 0
*RES
116 *12:1 *12:2 0.30357142857142855
117 *12:3 *12:4 0.7589285714285713
118 *12:5 _166_:Y 15.607142857142856
119 *12:6 *12:7 11.383928571428571
120 *12:8 *12:9 2.7025
121 *12:1 *12:10 2.0535714285714284
122 *12:2 _167_:C 0.4107142857142857
123 *12:4 *12:9 0
124 *12:5 *12:3 0
125 _166_:Y _166_:Y 0
126 *12:10 *12:7 0
127 *12:6 *12:11 0
128 _167_:C _167_:C 0
*END

*D_NET *13 0.00639284324144
*CONN
*P lout[1] O
*I _167_:B I
*I _131_:A I
*I _130_:X O
*CAP
94 *13:1 4.017137184e-05
95 *13:2 8.932229792e-05
96 *13:3 0.0022748325525400004
97 *13:5 0.0009114835544999999
98 *13:7 0.0010260743558400001
99 *13:8 0.0011808118288000001
100 *13:9 0.00087014728
101 _130_:X 0
102 _167_:B 0
103 _131_:A 0
*RES
129 *13:1 _130_:X 0.30357142857142855
130 *13:2 _167_:B 0.8214285714285714
131 *13:3 *13:4 25.955357142857142
132 *13:5 *13:6 1.6215
133 *13:7 _131_:A 0.30357142857142855
134 *13:8 *13:7 12.321428571428571
135 *13:9 *13:10 0.30357142857142855
136 *13:7 *13:10 10.267857142857142
137 *13:9 *13:1 8.625
138 _130_:X _130_:X 0
139 _167_:B _167_:B 0
140 *13:2 *13:4 0
141 *13:3 *13:6 0
142 _131_:A _131_:A 0
143 *13:8 *13:11 0
*END

*D_NET *14 0.00159357135812
*CONN
*P rempty I
*I _126_:A I
*CAP
104 *14:1 4.017137184e-05
105 *14:2 0.00016728583584
106 *14:3 0.00055346527634
107 *14:5 0.0008326488740999999
108 _126_:A 0
*RES
144 *14:1 _126_:A 0.30357142857142855
145 *14:2 *14:1 1.6428571428571428
146 *14:3 *14:4 6.223214285714285
147 *14:5 *14:6 1.4773666666666667
148 _126_:A _126_:A 0
149 *14:2 *14:4 0
150 *14:3 *14:5 0
*END

*D_NET *15 0.0044271214943800005
*CONN
*P reset I
*I _181_:A I
*I _173_:B1 I
*CAP
109 *15:1 0.0015068379216200002
110 *15:3 0.00114183005984
111 _181_:A 0.0009469212150399999
112 *15:5 0.00083153229788
113 *15:4 0
114 _173_:B1 0
115 *15:7 0
*RES
151 *15:1 *15:2 17.15178571428571
152 *15:3 *15:4 11.910714285714285
153 _181_:A _173_:B1 9.857142857142856
154 *15:5 *15:6 9.410714285714285
155 *15:3 *15:1 0
156 *15:4 *15:6 0
157 _181_:A _181_:A 0
158 _173_:B1 _173_:B1 0
159 *15:7 *15:5 0
*END

*D_NET *16 0.00170066737416
*CONN
*P rin[0] I
*I _147_:A I
*CAP
116 _147_:A 5.034052896000001e-05
117 *16:2 0.0007388432907000001
118 *16:4 0.0009114835544999999
119 *16:1 0
*RES
160 _147_:A *16:1 0.4107142857142857
161 *16:2 *16:3 8.348214285714285
162 *16:4 *16:5 1.6215
163 _147_:A _147_:A 0
164 *16:1 *16:3 0
165 *16:2 *16:4 0
*END

*D_NET *17 0.00325098994064
*CONN
*P rin[1] I
*I _130_:B1 I
*CAP
120 *17:1 0.0011085702555
121 *17:3 0.00214241968514
122 _130_:B1 0
*RES
166 *17:1 *17:2 1.9818333333333336
167 *17:3 *17:4 24.4375
168 *17:3 *17:1 0
169 _130_:B1 _130_:B1 0
170 _130_:B1 *17:4 0
*END

*D_NET *18 0.003093638634200001
*CONN
*P rout[0] O
*I _146_:B I
*I _145_:X O
*CAP
123 *18:1 0.0007932315339000001
124 _146_:B 4.017137184e-05
125 *18:3 0.00016728583584
126 *18:5 0.00028423114272
127 *18:6 0.00022243310784000002
128 *18:7 0.0015862856420600002
129 *18:8 0
130 *18:4 0
131 _145_:X 0
*RES
171 *18:1 *18:2 1.4053000000000002
172 _146_:B *18:3 0.30357142857142855
173 *18:3 *18:4 1.6428571428571428
174 *18:5 _145_:X 2.875
175 *18:6 *18:7 2.4285714285714284
176 *18:7 *18:8 18.0625
177 *18:8 *18:1 0
178 _146_:B _146_:B 0
179 *18:4 *18:7 0
180 _145_:X _145_:X 0
181 *18:5 *18:6 0
*END

*D_NET *19 0.005474128911100001
*CONN
*P rout[1] O
*I _130_:A2 I
*I _129_:X O
*CAP
132 *19:1 9.779659552000001e-05
133 *19:2 0.0014239089770999999
134 *19:4 4.43020701e-05
135 *19:6 8.286251159999999e-05
136 *19:7 0.0011874049358999998
137 *19:8 2.3813806740000006e-05
138 _129_:X 0.00012830406688
139 *19:11 0.0010036690255000001
140 *19:12 0.0009639451652800001
141 *19:14 0.0005181217564799999
142 _130_:A2 0
143 *19:13 0
144 *19:9 0
145 *19:10 0
*RES
182 *19:1 _130_:A2 0.9107142857142857
183 *19:2 *19:3 2.5583666666666667
184 *19:4 *19:5 0.036033333333333334
185 *19:6 *19:4 0.10653333333333334
186 *19:7 *19:6 2.125966666666667
187 *19:8 *19:9 0.15178571428571427
188 _129_:X *19:10 1.232142857142857
189 *19:11 *19:12 11.383928571428571
190 *19:12 *19:13 10.928571428571427
191 *19:14 *19:1 5.339285714285714
192 _130_:A2 _130_:A2 0
193 *19:13 *19:2 0
194 *19:12 *19:5 0
195 *19:9 *19:7 0
196 *19:10 *19:8 0
197 _129_:X _129_:X 0
198 *19:14 *19:11 0
*END

*D_NET *20 0.00109002295838
*CONN
*P uempty I
*I _102_:A I
*CAP
146 _102_:A 0.00024524937376
147 *20:2 0.0008447735846200001
148 *20:1 0
*RES
199 _102_:A *20:1 2.464285714285714
200 *20:2 *20:3 9.5625
201 _102_:A _102_:A 0
202 *20:1 *20:2 0
*END

*D_NET *21 0.00117214446422
*CONN
*P uin[0] I
*I _103_:A I
*CAP
149 _103_:A 4.017137184e-05
150 *21:1 0.00012830406688
151 *21:3 0.0010036690255000001
152 *21:2 0
*RES
203 _103_:A *21:1 0.30357142857142855
204 *21:1 *21:2 1.232142857142857
205 *21:3 *21:4 11.383928571428571
206 _103_:A _103_:A 0
207 *21:2 *21:3 0
*END

*D_NET *22 0.0016382935959000002
*CONN
*P uin[1] I
*I _157_:B I
*CAP
153 *22:1 0.0005181217564799999
154 *22:3 0.00097718645202
155 *22:5 0.00014298538739999998
156 _157_:B 0
157 *22:2 0
*RES
208 *22:1 *22:2 5.339285714285714
209 *22:3 *22:4 11.080357142857142
210 *22:5 *22:6 1.5178571428571426
211 _157_:B _157_:B 0
212 _157_:B *22:6 0
213 *22:1 *22:3 0
214 *22:2 *22:5 0
*END

*D_NET *23 0.006150964266700001
*CONN
*P uout[0] O
*I _158_:C I
*I _116_:A I
*I _112_:Y O
*CAP
158 *23:1 0.00247345185364
159 *23:3 5.034052896000001e-05
160 _158_:C 0.0002062676048
161 *23:4 4.017137184e-05
162 *23:5 0.00016728583584
163 *23:7 9.669826434000002e-05
164 *23:2 0.00042105240893999997
165 *23:6 0.00145368421152
166 *23:11 0.00124201218682
167 _116_:A 0
168 _112_:Y 0
169 *23:10 0
*RES
215 *23:1 *23:2 28.232142857142854
216 *23:3 _112_:Y 0.4107142857142857
217 _158_:C *23:4 2.0535714285714284
218 *23:4 *23:5 0.30357142857142855
219 *23:5 *23:6 1.6428571428571428
220 *23:7 *23:8 0.45535714285714285
221 *23:7 *23:9 0.4107142857142857
222 *23:2 *23:9 4.705357142857142
223 *23:6 *23:10 15.19642857142857
224 *23:11 *23:12 14.116071428571427
225 _116_:A _116_:A 0
226 _116_:A *23:2 0
227 *23:3 *23:1 0
228 _112_:Y _112_:Y 0
229 _158_:C _158_:C 0
230 *23:6 *23:8 0
231 *23:10 *23:11 0
*END

*D_NET *24 0.006756996345780001
*CONN
*P uout[1] O
*I _158_:B I
*I _101_:C I
*I _100_:X O
*CAP
170 *24:1 4.640188412000001e-05
171 *24:2 0.00022243310784000002
172 *24:4 4.017137184e-05
173 *24:5 0.00024524937376
174 *24:6 0.00244696928016
175 _100_:X 0.00040117644959999997
176 _158_:B 5.034052896000001e-05
177 *24:9 0.00024891568132000004
178 *24:11 0.0004791399875199999
179 *24:7 0.00064615428352
180 *24:12 0.00063506706336
181 *24:15 0.0012949773337799998
182 _101_:C 0
183 *24:8 0
184 *24:14 0
*RES
232 *24:1 *24:2 0.4107142857142857
233 *24:2 *24:3 2.4285714285714284
234 *24:4 _101_:C 0.30357142857142855
235 *24:5 *24:4 2.464285714285714
236 *24:6 *24:7 27.928571428571427
237 _100_:X *24:8 4.107142857142857
238 _158_:B _158_:B 0.4107142857142857
239 *24:9 *24:10 2.7321428571428568
240 *24:11 *24:12 4.928571428571428
241 *24:7 *24:13 7.285714285714286
242 *24:12 *24:14 6.571428571428571
243 *24:15 *24:1 14.723214285714283
244 _101_:C _101_:C 0
245 *24:5 *24:7 0
246 *24:8 *24:6 0
247 _100_:X _100_:X 0
248 _158_:B _158_:B 0
249 _158_:B *24:10 0
250 *24:11 *24:9 0
251 *24:12 *24:13 0
252 *24:14 *24:15 0
*END

*D_NET *25 0.0024048642081800006
*CONN
*P vempty O
*I _093_:B I
*I _092_:X O
*CAP
185 *25:1 0.00048725884264
186 _093_:B 5.034052896000001e-05
187 *25:4 0.00023567439458000006
188 *25:6 0.00032321291168
189 *25:2 8.223124824000001e-05
190 *25:7 5.034052896000001e-05
191 *25:8 0.0011758057531200002
192 *25:3 0
193 _092_:X 0
*RES
253 *25:1 *25:2 5.4642857142857135
254 _093_:B *25:3 0.4107142857142857
255 *25:4 *25:5 2.580357142857143
256 *25:6 _093_:B 3.2857142857142856
257 *25:2 *25:4 0.8214285714285714
258 *25:7 _092_:X 0.4107142857142857
259 *25:8 *25:9 13.357142857142856
260 _093_:B _093_:B 0
261 *25:3 *25:8 0
262 *25:6 *25:5 0
263 *25:7 *25:9 0
264 _092_:X _092_:X 0
*END

*D_NET *26 0.00164608981292
*CONN
*I _132_:B I
*I _124_:X O
*CAP
194 _132_:B 0.00082997590816
195 *26:1 4.017137184e-05
196 *26:2 5.034052896000001e-05
197 *26:4 0.0007256020039600001
198 *26:3 0
199 _124_:X 0
*RES
265 _132_:B *26:1 8.625
266 *26:1 *26:2 0.30357142857142855
267 *26:2 *26:3 0.4107142857142857
268 *26:4 *26:5 8.196428571428571
269 _132_:B _132_:B 0
270 *26:3 *26:4 0
271 _124_:X _124_:X 0
272 _124_:X *26:5 0
*END

*D_NET *27 0.00033675379672000005
*CONN
*I _127_:A I
*I _126_:X O
*CAP
200 *27:1 0.00016946796088000002
201 *27:3 0.00016728583584
202 _127_:A 0
203 _126_:X 0
*RES
273 *27:1 *27:2 1.8214285714285714
274 *27:3 _126_:X 1.6428571428571428
275 _127_:A _127_:A 0
276 _127_:A *27:1 0
277 *27:3 *27:2 0
278 _126_:X _126_:X 0
*END

*D_NET *28 0.0020937453725
*CONN
*I _146_:A I
*I _130_:B2 I
*I _128_:A I
*I _127_:X O
*CAP
204 *28:1 0.0002062676048
205 *28:2 0.0010698754592
206 _130_:B2 4.017137184e-05
207 *28:4 0.0002062676048
208 *28:5 4.017137184e-05
209 *28:7 0.00016946796088000002
210 *28:8 0.00031512211502
211 *28:9 4.640188412000001e-05
212 _127_:X 0
213 _146_:A 0
214 *28:6 0
215 _128_:A 0
*RES
279 *28:1 _127_:X 2.0535714285714284
280 *28:2 *28:3 12.14285714285714
281 _130_:B2 *28:4 0.30357142857142855
282 *28:4 *28:5 2.0535714285714284
283 *28:5 *28:6 0.30357142857142855
284 *28:7 *28:2 1.8214285714285714
285 *28:8 *28:9 3.4910714285714284
286 *28:9 *28:10 0.4107142857142857
287 _127_:X _127_:X 0
288 *28:1 *28:2 0
289 _146_:A _146_:A 0
290 _146_:A *28:3 0
291 _130_:B2 _130_:B2 0
292 *28:6 *28:7 0
293 _128_:A _128_:A 0
294 _128_:A *28:8 0
*END

*D_NET *29 0.00062584084988
*CONN
*I _147_:B I
*I _130_:A1 I
*I _128_:Y O
*CAP
216 *29:1 0.00022243310784000002
217 _147_:B 4.017137184e-05
218 *29:3 0.00016728583584
219 *29:5 0.00019595053436
220 _128_:Y 0
221 _130_:A1 0
222 *29:4 0
*RES
295 *29:1 *29:2 2.4285714285714284
296 _147_:B *29:3 0.30357142857142855
297 *29:3 *29:4 1.6428571428571428
298 *29:5 *29:1 2.1249999999999996
299 _128_:Y _128_:Y 0
300 _128_:Y *29:1 0
301 _130_:A1 _130_:A1 0
302 _130_:A1 *29:2 0
303 _147_:B _147_:B 0
304 *29:4 *29:5 0
*END

*D_NET *30 0.00130740934072
*CONN
*I _132_:C I
*I _131_:Y O
*CAP
223 _132_:C 4.017137184e-05
224 *30:1 0.00067404883232
225 *30:3 0.00059318913656
226 *30:2 0
227 _131_:Y 0
*RES
305 _132_:C *30:1 0.30357142857142855
306 *30:1 *30:2 6.982142857142857
307 *30:3 *30:4 6.678571428571428
308 _132_:C _132_:C 0
309 *30:2 *30:4 0
310 _131_:Y _131_:Y 0
311 _131_:Y *30:3 0
*END

*D_NET *31 0.00325721137974
*CONN
*I _177_:A I
*I _133_:B I
*I _132_:X O
*CAP
228 *31:1 2.3813806740000006e-05
229 *31:3 0.0018772083894
230 *31:5 2.3813806740000006e-05
231 *31:7 0.00019595053436
232 *31:8 4.640188412000001e-05
233 *31:9 0.0008447735846200001
234 *31:11 0.00024524937376
235 _177_:A 0
236 _132_:X 0
237 _133_:B 0
238 *31:10 0
*RES
312 *31:1 *31:2 0.15178571428571427
313 *31:3 *31:4 3.3871333333333338
314 *31:5 *31:6 0.15178571428571427
315 *31:7 *31:8 2.1249999999999996
316 *31:8 *31:9 0.4107142857142857
317 *31:9 *31:10 9.5625
318 *31:11 _177_:A 2.464285714285714
319 _177_:A _177_:A 0
320 _132_:X _132_:X 0
321 _132_:X *31:2 0
322 *31:1 *31:3 0
323 *31:5 *31:4 0
324 *31:11 *31:6 0
325 _133_:B _133_:B 0
326 _133_:B *31:7 0
327 *31:10 *31:12 0
*END

*D_NET *32 0.00042721653012
*CONN
*I _134_:B I
*I _133_:Y O
*CAP
239 *32:1 0.00014298538739999998
240 *32:3 0.00028423114272
241 _134_:B 0
242 _133_:Y 0
*RES
328 *32:1 *32:2 1.5178571428571426
329 *32:3 _133_:Y 2.875
330 _134_:B _134_:B 0
331 _134_:B *32:2 0
332 *32:3 *32:1 0
333 _133_:Y _133_:Y 0
*END

*D_NET *33 0.0017695975852
*CONN
*I _135_:B I
*I _134_:Y O
*CAP
243 _134_:Y 8.932229792e-05
244 *33:2 0.00038132854871999994
245 *33:4 0.00125877536672
246 *33:5 4.017137184e-05
247 *33:1 0
248 _135_:B 0
*RES
334 _134_:Y *33:1 0.8214285714285714
335 *33:2 *33:3 4.249999999999999
336 *33:4 *33:5 13.142857142857142
337 *33:5 _135_:B 0.30357142857142855
338 _134_:Y _134_:Y 0
339 *33:1 *33:2 0
340 *33:4 *33:3 0
341 _135_:B _135_:B 0
*END

*D_NET *34 0.0010943591499999999
*CONN
*I _137_:B I
*I _136_:Y O
*CAP
249 *34:1 0.00038132854871999994
250 *34:3 0.00071303060128
251 _137_:B 0
252 _136_:Y 0
*RES
342 *34:1 *34:2 4.249999999999999
343 *34:3 _136_:Y 7.3928571428571415
344 _137_:B _137_:B 0
345 _137_:B *34:1 0
346 *34:3 *34:2 0
347 _136_:Y _136_:Y 0
*END

*D_NET *35 0.00191255768088
*CONN
*I _167_:A I
*I _165_:A I
*I _139_:B I
*I _138_:Y O
*CAP
253 *35:1 0.00016946796088000002
254 *35:3 4.017137184e-05
255 *35:4 0.00024524937376
256 *35:2 0.0008580148713600001
257 *35:6 0.00012949366976
258 _167_:A 6.898398368e-05
259 *35:8 0.00040117644959999997
260 _138_:Y 0
261 _139_:B 0
262 _165_:A 0
*RES
348 *35:1 *35:2 1.8214285714285714
349 *35:3 _139_:B 0.30357142857142855
350 *35:4 *35:3 2.464285714285714
351 *35:2 *35:5 9.714285714285714
352 *35:6 _165_:A 0.30357142857142855
353 *35:6 *35:4 0.8214285714285714
354 _167_:A *35:7 0.6071428571428571
355 *35:8 *35:7 4.107142857142857
356 _138_:Y _138_:Y 0
357 _138_:Y *35:2 0
358 *35:8 *35:1 0
359 _139_:B _139_:B 0
360 *35:4 *35:5 0
361 _165_:A _165_:A 0
362 _167_:A _167_:A 0
*END

*D_NET *36 0.0038464501082
*CONN
*I _180_:D I
*I _169_:B I
*I _140_:B I
*I _139_:X O
*CAP
263 _140_:B 4.017137184e-05
264 _169_:B 4.017137184e-05
265 *36:1 0.00044015821855999997
266 *36:3 0.00024891568132000004
267 *36:5 0.00067404883232
268 *36:7 4.017137184e-05
269 _139_:X 0.0012977571356799999
270 _180_:D 4.017137184e-05
271 *36:8 0.0010248847529600001
272 *36:6 0
*RES
363 _140_:B *36:1 0.30357142857142855
364 _169_:B *36:2 0.30357142857142855
365 *36:1 *36:2 4.517857142857142
366 *36:3 *36:4 2.7321428571428568
367 *36:5 *36:6 6.982142857142857
368 *36:7 *36:5 0.30357142857142855
369 _139_:X *36:7 13.553571428571427
370 _180_:D *36:8 0.30357142857142855
371 *36:8 *36:1 10.678571428571429
372 _140_:B _140_:B 0
373 _169_:B _169_:B 0
374 _180_:D _180_:D 0
375 _180_:D *36:4 0
376 *36:6 *36:3 0
377 _139_:X _139_:X 0
*END

*D_NET *37 0.00098432005556
*CONN
*I _144_:A I
*I _140_:X O
*CAP
273 *37:1 0.00024524937376
274 *37:2 0.00014298538739999998
275 _144_:A 0.0005960852944
276 _140_:X 0
277 *37:4 0
*RES
378 *37:1 _140_:X 2.464285714285714
379 *37:2 *37:3 1.5178571428571426
380 _144_:A *37:4 6.160714285714286
381 _140_:X _140_:X 0
382 *37:1 *37:2 0
383 *37:4 *37:3 0
384 _144_:A _144_:A 0
*END

*D_NET *38 0.00029628784524
*CONN
*I _143_:B I
*I _141_:X O
*CAP
278 *38:1 9.002024044000002e-05
279 _141_:X 0.0002062676048
280 _143_:B 0
281 *38:3 0
*RES
385 *38:1 *38:2 0.9107142857142857
386 _141_:X *38:3 2.0535714285714284
387 _143_:B _143_:B 0
388 _143_:B *38:1 0
389 *38:3 *38:2 0
390 _141_:X _141_:X 0
*END

*D_NET *39 0.00096491464764
*CONN
*I _143_:C I
*I _142_:X O
*CAP
282 _142_:X 0.00055710352544
283 *39:2 0.0004078111222
284 *39:1 0
285 _143_:C 0
*RES
391 _142_:X *39:1 5.75
392 *39:2 *39:3 4.553571428571428
393 _142_:X _142_:X 0
394 *39:1 *39:2 0
395 _143_:C _143_:C 0
396 _143_:C *39:3 0
*END

*D_NET *40 0.00021980848984000004
*CONN
*I _144_:B I
*I _143_:X O
*CAP
286 *40:1 5.034052896000001e-05
287 *40:2 0.00016946796088000002
288 _143_:X 0
289 _144_:B 0
*RES
397 *40:1 _143_:X 0.4107142857142857
398 *40:2 *40:3 1.8214285714285714
399 _143_:X _143_:X 0
400 *40:1 *40:2 0
401 _144_:B _144_:B 0
402 _144_:B *40:3 0
*END

*D_NET *41 0.0019189130282400001
*CONN
*I _145_:A I
*I _144_:X O
*CAP
290 *41:1 0.0006991194304800001
291 _144_:X 0.00121979359776
292 _145_:A 0
293 *41:3 0
*RES
403 *41:1 *41:2 7.892857142857142
404 _144_:X *41:3 12.732142857142856
405 _145_:A _145_:A 0
406 _145_:A *41:1 0
407 *41:3 *41:2 0
408 _144_:X _144_:X 0
*END

*D_NET *42 0.0032914555557200004
*CONN
*I _166_:A I
*I _149_:A1 I
*I _146_:Y O
*CAP
294 *42:1 0.00059318913656
295 *42:3 0.0011808118288000001
296 _166_:A 5.034052896000001e-05
297 *42:5 0.0014671140614000001
298 _149_:A1 0
299 _146_:Y 0
300 *42:4 0
*RES
409 *42:1 *42:2 6.678571428571428
410 *42:3 _146_:Y 12.321428571428571
411 _166_:A *42:4 0.4107142857142857
412 *42:5 *42:1 16.69642857142857
413 _149_:A1 _149_:A1 0
414 _149_:A1 *42:1 0
415 *42:3 *42:2 0
416 _146_:Y _146_:Y 0
417 _166_:A _166_:A 0
418 *42:4 *42:5 0
*END

*D_NET *43 0.0027119552175200005
*CONN
*I _166_:B I
*I _149_:A2 I
*I _147_:Y O
*CAP
301 _166_:B 4.017137184e-05
302 *43:1 0.00016728583584
303 *43:3 0.0014406314879200001
304 *43:5 0.0010638665219200002
305 *43:2 0
306 _149_:A2 0
307 _147_:Y 0
*RES
419 _166_:B *43:1 0.30357142857142855
420 *43:1 *43:2 1.6428571428571428
421 *43:3 *43:4 16.392857142857142
422 *43:5 _147_:Y 11.089285714285714
423 _166_:B _166_:B 0
424 *43:2 *43:3 0
425 _149_:A2 _149_:A2 0
426 _149_:A2 *43:4 0
427 _147_:Y _147_:Y 0
428 *43:5 *43:6 0
*END

*D_NET *44 0.00214510074112
*CONN
*I _149_:C1 I
*I _148_:Y O
*CAP
308 *44:1 0.00016728583584
309 *44:2 0.0010698754592
310 _148_:Y 0.00090793944608
311 _149_:C1 0
312 *44:4 0
*RES
429 *44:1 _149_:C1 1.6428571428571428
430 *44:2 *44:3 12.14285714285714
431 _148_:Y *44:4 9.446428571428571
432 _149_:C1 _149_:C1 0
433 *44:1 *44:2 0
434 *44:4 *44:3 0
435 _148_:Y _148_:Y 0
*END

*D_NET *45 0.0022625973242
*CONN
*I _177_:C I
*I _150_:B I
*I _149_:X O
*CAP
313 _177_:C 4.017137184e-05
314 _149_:X 0.00133792850752
315 *45:2 0.00088449744484
316 _150_:B 0
317 *45:4 0
*RES
436 _177_:C *45:1 0.30357142857142855
437 _149_:X *45:1 13.553571428571427
438 _149_:X _149_:X 0.30357142857142855
439 *45:2 *45:3 10.017857142857142
440 _177_:C _177_:C 0
441 _149_:X _149_:X 0
442 _150_:B _150_:B 0
443 _150_:B *45:2 0
444 *45:4 *45:3 0
*END

*D_NET *46 0.00027128945428
*CONN
*I _151_:B I
*I _150_:Y O
*CAP
318 _151_:B 0.00012830406688
319 *46:2 0.00014298538739999998
320 *46:1 0
321 _150_:Y 0
*RES
445 _151_:B *46:1 1.232142857142857
446 *46:2 *46:3 1.5178571428571426
447 _151_:B _151_:B 0
448 *46:1 *46:2 0
449 _150_:Y _150_:Y 0
450 _150_:Y *46:3 0
*END

*D_NET *47 0.003908368681800001
*CONN
*I _152_:B I
*I _151_:Y O
*CAP
322 *47:1 0.0008050497244000001
323 *47:3 0.00019595053436
324 *47:5 0.0005960852944
325 *47:6 0.00231128312864
326 _152_:B 0
327 *47:7 0
328 _151_:Y 0
*RES
451 *47:1 *47:2 9.107142857142856
452 *47:3 *47:4 2.1249999999999996
453 *47:5 _151_:Y 6.160714285714286
454 *47:6 *47:7 24.232142857142854
455 *47:6 *47:1 0
456 _152_:B _152_:B 0
457 _152_:B *47:2 0
458 *47:7 *47:4 0
459 *47:5 *47:3 0
460 _151_:Y _151_:Y 0
*END

*D_NET *48 0.0010447061151200002
*CONN
*I _160_:A I
*I _154_:A I
*I _153_:Y O
*CAP
329 *48:1 0.00059318913656
330 _153_:Y 0.00016728583584
331 *48:4 0.00028423114272
332 _160_:A 0
333 *48:3 0
334 _154_:A 0
*RES
461 *48:1 *48:2 6.678571428571428
462 _153_:Y *48:3 1.6428571428571428
463 *48:4 _154_:A 2.875
464 _160_:A _160_:A 0
465 _160_:A *48:2 0
466 *48:3 *48:1 0
467 _153_:Y _153_:Y 0
468 _154_:A _154_:A 0
469 *48:4 *48:5 0
*END

*D_NET *49 0.0017294262133599999
*CONN
*I _155_:B I
*I _154_:Y O
*CAP
335 _155_:B 0.00012830406688
336 *49:2 0.00038132854871999994
337 *49:4 0.00121979359776
338 *49:1 0
339 _154_:Y 0
*RES
470 _155_:B *49:1 1.232142857142857
471 *49:2 *49:3 4.249999999999999
472 *49:4 _154_:Y 12.732142857142856
473 _155_:B _155_:B 0
474 *49:1 *49:3 0
475 *49:4 *49:2 0
476 _154_:Y _154_:Y 0
*END

*D_NET *50 0.0034003473809600003
*CONN
*I _156_:B I
*I _155_:Y O
*CAP
340 *50:1 2.3813806740000006e-05
341 *50:3 0.0012155296133400002
342 *50:5 0.00032321291168
343 *50:6 0.0018377910492
344 _156_:B 0
345 *50:2 0
346 _155_:Y 0
*RES
477 *50:1 *50:2 0.15178571428571427
478 *50:3 *50:4 13.8125
479 *50:5 _155_:Y 3.2857142857142856
480 *50:6 *50:7 3.3150666666666666
481 _156_:B _156_:B 0
482 _156_:B *50:1 0
483 *50:2 *50:6 0
484 *50:3 *50:7 0
485 *50:5 *50:4 0
486 _155_:Y _155_:Y 0
*END

*D_NET *51 0.00060962617944
*CONN
*I _159_:A I
*I _157_:X O
*CAP
347 _157_:X 0.00044015821855999997
348 *51:2 0.00016946796088000002
349 *51:1 0
350 _159_:A 0
*RES
487 _157_:X *51:1 4.517857142857142
488 *51:2 *51:3 1.8214285714285714
489 *51:1 *51:3 0
490 _157_:X _157_:X 0
491 _159_:A _159_:A 0
492 _159_:A *51:2 0
*END

*D_NET *52 0.00042870071264000003
*CONN
*I _159_:B I
*I _158_:Y O
*CAP
351 *52:1 0.00022243310784000002
352 *52:3 0.0002062676048
353 _159_:B 0
354 _158_:Y 0
*RES
493 *52:1 *52:2 2.4285714285714284
494 *52:3 _158_:Y 2.0535714285714284
495 _159_:B _159_:B 0
496 _159_:B *52:2 0
497 *52:3 *52:1 0
498 _158_:Y _158_:Y 0
*END

*D_NET *53 0.0030294149436
*CONN
*I _161_:B I
*I _160_:Y O
*CAP
355 _161_:B 0.0003621946806399999
356 *53:2 0.00249993442712
357 *53:4 0.00016728583584
358 *53:1 0
359 _160_:Y 0
*RES
499 _161_:B *53:1 3.6964285714285707
500 *53:2 *53:3 28.535714285714285
501 *53:4 _160_:Y 1.6428571428571428
502 _161_:B _161_:B 0
503 *53:1 *53:2 0
504 *53:4 *53:3 0
505 _160_:Y _160_:Y 0
*END

*D_NET *54 0.0037986828764
*CONN
*I _162_:B I
*I _161_:Y O
*CAP
360 *54:1 4.640188412000001e-05
361 *54:3 0.0013744250542200003
362 *54:4 0.00012830406688
363 *54:5 0.00067404883232
364 *54:7 4.017137184e-05
365 *54:8 0.0003621946806399999
366 *54:9 0.00038132854871999994
367 *54:2 0.0007918084376600001
368 _161_:Y 0
369 *54:6 0
370 _162_:B 0
*RES
506 *54:1 *54:2 0.4107142857142857
507 *54:3 *54:1 15.633928571428571
508 *54:4 _161_:Y 1.232142857142857
509 *54:5 *54:6 6.982142857142857
510 *54:7 *54:5 0.30357142857142855
511 *54:8 *54:7 3.6964285714285707
512 *54:9 *54:10 4.249999999999999
513 *54:2 *54:11 8.95535714285714
514 *54:4 *54:3 0
515 _161_:Y _161_:Y 0
516 *54:6 *54:11 0
517 *54:8 *54:9 0
518 _162_:B _162_:B 0
519 _162_:B *54:10 0
*END

*D_NET *55 0.00101639561208
*CONN
*I _164_:B I
*I _163_:Y O
*CAP
371 *55:1 0.00038132854871999994
372 *55:3 0.00063506706336
373 _164_:B 0
374 _163_:Y 0
*RES
520 *55:1 *55:2 4.249999999999999
521 *55:3 _163_:Y 6.571428571428571
522 _164_:B _164_:B 0
523 _164_:B *55:1 0
524 *55:3 *55:2 0
525 _163_:Y _163_:Y 0
*END

*D_NET *56 0.0019028197324000003
*CONN
*I _168_:A I
*I _165_:Y O
*CAP
375 _165_:Y 0.00067404883232
376 *56:2 0.0012287709000800002
377 _168_:A 0
378 *56:1 0
*RES
526 _165_:Y *56:1 6.982142857142857
527 *56:2 *56:3 13.964285714285714
528 _168_:A _168_:A 0
529 _168_:A *56:2 0
530 *56:1 *56:3 0
531 _165_:Y _165_:Y 0
*END

*D_NET *57 0.00020701471472000003
*CONN
*I _168_:B I
*I _167_:X O
*CAP
379 _168_:B 4.017137184e-05
380 *57:1 5.034052896000001e-05
381 *57:3 0.00011650281392
382 *57:2 0
383 _167_:X 0
*RES
532 _168_:B *57:1 0.30357142857142855
533 *57:1 *57:2 0.4107142857142857