*SPEF "IEEE 1481-1998"
*DESIGN "ycell"
*DATE "Thu Dec 03 04:22:30 2020"
*VENDOR "AUC CSCE Department"
*PROGRAM "SPEF Extractor"
*VERSION "1.0"
*DESIGN_FLOW "PIN_CAP NONE"
*DIVIDER /
*DELIMITER :
*BUS_DELIMITER []
*T_UNIT 1.00000 NS
*C_UNIT 1.00000 PF
*R_UNIT 1.00000 OHM
*L_UNIT 1.00000 HENRY


*NAME_MAP
*0 cbitin
*1 cbitout
*2 confclk
*3 confclko
*4 dempty
*5 din[0]
*6 din[1]
*7 dout[0]
*8 dout[1]
*9 hempty
*10 hempty2
*11 lempty
*12 lin[0]
*13 lin[1]
*14 lout[0]
*15 lout[1]
*16 rempty
*17 reset
*18 reseto
*19 rin[0]
*20 rin[1]
*21 rout[0]
*22 rout[1]
*23 uempty
*24 uin[0]
*25 uin[1]
*26 uout[0]
*27 uout[1]
*28 vempty
*29 vempty2
*30 _000_
*31 _001_
*32 _002_
*33 _003_
*34 _004_
*35 _005_
*36 _006_
*37 _007_
*38 _008_
*39 _009_
*40 _010_
*41 _011_
*42 _012_
*43 _013_
*44 _014_
*45 _015_
*46 _016_
*47 _017_
*48 _018_
*49 _019_
*50 _020_
*51 _021_
*52 _022_
*53 _023_
*54 _024_
*55 _025_
*56 _026_
*57 _027_
*58 _028_
*59 _029_
*60 _030_
*61 _031_
*62 _032_
*63 _033_
*64 _034_
*65 _035_
*66 _036_
*67 _037_
*68 _038_
*69 _039_
*70 _040_
*71 _041_
*72 _042_
*73 _043_
*74 _044_
*75 _045_
*76 _046_
*77 _047_
*78 _048_
*79 _049_
*80 _050_
*81 _051_
*82 _052_
*83 _053_
*84 _054_
*85 _055_
*86 _056_
*87 _057_
*88 _058_
*89 _059_
*90 _060_
*91 _061_
*92 _062_
*93 _063_
*94 _064_
*95 _065_
*96 _066_
*97 _067_
*98 _068_
*99 _069_
*100 _070_
*101 _071_
*102 _072_
*103 _073_
*104 _074_
*105 _075_
*106 _076_
*107 _077_
*108 _078_
*109 cfg.cnfg\[0\]
*110 cfg.cnfg\[1\]
*111 hfsm.clear
*112 hfsm.in\[1\]
*113 hfsm.lin\[0\]
*114 hfsm.lin\[1\]
*115 hfsm.lmatch\[0\]
*116 hfsm.lmatch\[1\]
*117 hfsm.nlmempty
*118 vfsm.clear
*119 vfsm.in\[1\]
*120 vfsm.lin\[0\]
*121 vfsm.lin\[1\]
*122 vfsm.lmatch\[0\]
*123 vfsm.lmatch\[1\]
*124 vfsm.nlmempty

*D_NET *0 0.0015902234894600003
*CONN
*P cbitin I
*I _186_:D I
*CAP
0 *0:1 0.00040117644959999997
1 *0:2 0.0011890470398600002
2 _186_:D 0
*RES
0 *0:1 _186_:D 4.107142857142857
1 *0:2 *0:3 13.508928571428571
2 _186_:D _186_:D 0
3 *0:1 *0:2 0
*END

*D_NET *1 0.00286916396538
*CONN
*P cbitout O
*I _188_:Q O
*I _096_:A I
*I _085_:A I
*CAP
3 *1:1 0.0002062676048
4 _096_:A 0.00055710352544
5 _188_:Q 8.932229792e-05
6 *1:2 0.00016946796088000002
7 _085_:A 0.00012830406688
8 *1:5 0.00171869850946
9 *1:4 0
*RES
4 *1:1 _096_:A 2.0535714285714284
5 _096_:A _085_:A 5.75
6 _188_:Q _188_:Q 0.8214285714285714
7 *1:2 *1:3 1.8214285714285714
8 _085_:A *1:4 1.232142857142857
9 *1:5 *1:6 19.580357142857142
10 _096_:A _096_:A 0
11 *1:1 *1:6 0
12 _085_:A _085_:A 0
13 _188_:Q _188_:Q 0
14 _188_:Q *1:3 0
15 *1:4 *1:2 0
*END

*D_NET *2 0.00596543833902
*CONN
*P confclk I
*I _188_:CLK I
*I _187_:CLK I
*I _186_:CLK I
*I _182_:A I
*CAP
10 *2:1 5.034052896000001e-05
11 *2:2 0.00083153229788
12 *2:4 8.932229792e-05
13 *2:3 0.00064615428352
14 _182_:A 0.00071303060128
15 *2:7 0.00024891568132000004
16 *2:9 0.00086895767712
17 *2:11 0.00097718645202
18 *2:13 4.640188412000001e-05
19 *2:5 0.00149359663488
20 _188_:CLK 0
21 *2:6 0
22 _187_:CLK 0
23 _186_:CLK 0
24 *2:10 0
*RES
16 *2:1 _188_:CLK 0.4107142857142857
17 *2:2 *2:3 9.410714285714285
18 *2:4 _187_:CLK 0.8214285714285714
19 *2:3 *2:5 7.285714285714286
20 _182_:A *2:6 7.3928571428571415
21 *2:7 *2:8 2.7321428571428568
22 *2:9 *2:10 9.035714285714285
23 *2:11 *2:12 11.080357142857142
24 *2:13 *2:7 0.4107142857142857
25 *2:5 *2:13 16.999999999999996
26 _182_:A _182_:A 0
27 _188_:CLK _188_:CLK 0
28 *2:1 *2:3 0
29 *2:6 *2:2 0
30 _187_:CLK _187_:CLK 0
31 *2:4 *2:5 0
32 _186_:CLK _186_:CLK 0
33 _186_:CLK *2:7 0
34 *2:10 *2:8 0
35 *2:9 *2:11 0
*END

*D_NET *3 0.0012364192037800001
*CONN
*P confclko O
*I _182_:X O
*CAP
25 *3:1 0.0010301515989800001
26 *3:3 0.0002062676048
27 _182_:X 0
*RES
36 *3:1 *3:2 11.687499999999998
37 *3:3 _182_:X 2.0535714285714284
38 *3:3 *3:2 0
39 _182_:X _182_:X 0
*END

*D_NET *4 0.00107455539786
*CONN
*P dempty I
*I _093_:A I
*CAP
28 *4:1 0.0007123607172200001
29 *4:3 0.0003621946806399999
30 _093_:A 0
*RES
40 *4:1 *4:2 8.044642857142856
41 *4:3 _093_:A 3.6964285714285707
42 *4:3 *4:2 0
43 _093_:A _093_:A 0
*END

*D_NET *5 0.0015453049904200003
*CONN
*P din[0] I
*I _111_:A I
*CAP
31 _111_:A 0.00067404883232
32 *5:2 0.0008712561581000002
33 *5:1 0
*RES
44 _111_:A *5:1 6.982142857142857
45 *5:2 *5:3 9.866071428571429
46 *5:1 *5:3 0
47 _111_:A _111_:A 0
*END

*D_NET *6 0.00164975110182
*CONN
*P din[1] I
*I _100_:B1 I
*CAP
34 _100_:B1 0.00075201237024
35 *6:2 0.0008977387315800001
36 *6:1 0
*RES
48 _100_:B1 *6:1 7.803571428571428
49 *6:2 *6:3 10.169642857142856
50 *6:1 *6:3 0
51 _100_:B1 _100_:B1 0
*END

*D_NET *7 0.00291735550966
*CONN
*P dout[0] O
*I _110_:B I
*I _109_:X O
*CAP
37 *7:1 0.00048725884264
38 *7:3 0.00066217909806
39 *7:4 0.00090793944608
40 *7:5 6.898398368e-05
41 _109_:X 0.0007909941392
42 _110_:B 0
*RES
52 *7:1 *7:2 5.4642857142857135
53 *7:3 *7:2 0.8214285714285714
54 *7:4 *7:5 9.446428571428571
55 *7:5 _110_:B 0.6071428571428571
56 _109_:X *7:4 8.214285714285714
57 *7:3 *7:6 6.5267857142857135
58 *7:4 *7:6 0
59 _110_:B _110_:B 0
60 _109_:X _109_:X 0
*END

*D_NET *8 0.00443947361242
*CONN
*P dout[1] O
*I _100_:A2 I
*I _099_:X O
*CAP
43 *8:1 0.00040117644959999997
44 *8:2 4.017137184e-05
45 *8:3 0.0005960852944
46 *8:5 0.00075320197312
47 *8:6 4.017137184e-05
48 *8:7 0.00012830406688
49 *8:8 0.00016847543872000001
50 *8:9 0.0014671140614000001
51 *8:11 0.0008447735846200001
52 _100_:A2 0
53 _099_:X 0
54 *8:13 0
*RES
61 *8:1 *8:2 4.107142857142857
62 *8:2 *8:3 0.30357142857142855
63 *8:3 *8:4 6.160714285714286
64 *8:5 *8:4 0.30357142857142855
65 *8:5 *8:6 7.3928571428571415
66 *8:6 *8:7 0.30357142857142855
67 *8:7 _100_:A2 1.232142857142857
68 *8:8 _099_:X 0.30357142857142855
69 *8:8 _099_:X 1.232142857142857
70 *8:9 *8:10 16.69642857142857
71 *8:11 *8:12 9.5625
72 *8:1 *8:12 0
73 _100_:A2 _100_:A2 0
74 _099_:X _099_:X 0
75 _099_:X *8:10 0
76 *8:13 *8:9 0
*END

*D_NET *9 0.00935793387712
*CONN
*P hempty O
*I _183_:A I
*I _181_:B I
*I _126_:B I
*I _125_:X O
*CAP
55 _125_:X 0.0002062676048
56 *9:2 0.0016789746492400003
57 _183_:A 0.0002062676048
58 _126_:B 0.00032321291168
59 *9:6 0.0011493231796400002
60 *9:7 0.0004791399875199999
61 *9:8 0.0009507038785400001
62 *9:10 0.0007538141937
63 *9:12 4.017137184e-05
64 *9:14 0.001960447208
65 *9:13 0.0016096112873599999
66 *9:1 0
67 *9:4 0
68 *9:5 0
69 *9:15 0
70 _181_:B 0
*RES
77 _125_:X *9:1 2.0535714285714284
78 *9:2 *9:3 19.125
79 _183_:A *9:4 2.0535714285714284
80 _126_:B *9:5 3.2857142857142856
81 *9:6 *9:2 13.053571428571427
82 *9:7 _181_:B 4.928571428571428
83 *9:8 *9:9 10.776785714285714
84 *9:10 *9:11 1.3332333333333333
85 *9:12 *9:13 0.30357142857142855
86 *9:14 *9:12 20.535714285714285
87 *9:13 *9:15 16.83928571428571
88 _125_:X _125_:X 0
89 *9:1 *9:2 0
90 *9:4 *9:3 0
91 _183_:A _183_:A 0
92 _126_:B _126_:B 0
93 *9:5 *9:6 0
94 *9:15 *9:16 0
95 _181_:B _181_:B 0
96 *9:7 *9:9 0
97 *9:8 *9:11 0
98 *9:14 *9:17 0
*END

*D_NET *10 0.00278081569436
*CONN
*P hempty2 O
*I _183_:X O
*CAP
71 *10:1 0.0003621946806399999
72 *10:2 0.00124201218682
73 *10:4 0.00028080611129999996
74 *10:6 0.0008958027155999998
75 _183_:X 0
*RES
99 *10:1 _183_:X 3.6964285714285707
100 *10:2 *10:3 14.116071428571427
101 *10:4 *10:5 0.4684333333333334
102 *10:6 *10:5 0.10653333333333334
103 *10:6 *10:7 1.4413333333333331
104 _183_:X _183_:X 0
105 *10:1 *10:3 0
106 *10:2 *10:4 0
*END

*D_NET *11 0.00055528480604
*CONN
*P lempty I
*I _138_:A I
*CAP
76 *11:1 0.00039905813189999997
77 *11:3 0.00015622667414000004
78 *11:4 0
79 _138_:A 0
*RES
107 *11:1 *11:2 0.6846333333333334
108 *11:3 *11:4 1.669642857142857
109 *11:4 *11:2 0
110 _138_:A _138_:A 0
111 _138_:A *11:3 0
*END

*D_NET *12 0.0034935213326399996
*CONN
*P lin[0] I
*I _139_:A I
*CAP
80 _139_:A 0.0005181217564799999
81 *12:2 4.640188412000001e-05
82 *12:3 0.00105663417246
83 *12:5 0.0013056569565
84 *12:7 0.00056670656308
85 *12:1 0
86 *12:4 0
*RES
112 _139_:A *12:1 5.339285714285714
113 *12:2 *12:3 0.4107142857142857
114 *12:3 *12:4 11.991071428571427
115 *12:5 *12:6 2.342166666666667
116 *12:7 *12:2 6.374999999999999
117 _139_:A _139_:A 0
118 *12:1 *12:7 0
119 *12:4 *12:6 0
*END

*D_NET *13 0.00081888446076
*CONN
*P lin[1] I
*I _165_:B I
*CAP
87 *13:1 0.0005567274927
88 *13:3 0.00026215696806
89 *13:4 0
90 _165_:B 0
*RES
120 *13:1 *13:2 0.9729000000000001
121 *13:3 *13:4 2.883928571428571
122 *13:4 *13:2 0
123 _165_:B _165_:B 0
124 _165_:B *13:3 0
*END

*D_NET *14 0.0036790104247000003
*CONN
*P lout[0] O
*I _167_:C I
*I _166_:Y O
*CAP
91 *14:1 0.0004023660524799999
92 *14:2 0.00023567439458000006
93 *14:4 0.0004791399875199999
94 *14:3 0.0013744250542200003
95 *14:6 0.0011874049358999998
96 _167_:C 0
97 _166_:Y 0
98 *14:8 0
*RES
125 *14:1 _167_:C 0.30357142857142855
126 *14:2 *14:3 2.580357142857143
127 *14:4 _166_:Y 4.928571428571428
128 *14:3 *14:5 15.633928571428571
129 *14:6 *14:7 2.125966666666667
130 *14:1 *14:8 3.6964285714285707
131 _167_:C _167_:C 0
132 *14:3 *14:7 0
133 *14:4 *14:2 0
134 _166_:Y _166_:Y 0
135 *14:8 *14:5 0
*END

*D_NET *15 0.00610686289204
*CONN
*P lout[1] O
*I _167_:B I
*I _131_:A I
*I _130_:X O
*CAP
99 *15:1 0.00044015821855999997
100 *15:2 0.0019305590973
101 *15:4 0.0007932315339000001
102 *15:6 8.932229792e-05
103 *15:3 0.00046077626916000004
104 _130_:X 4.017137184e-05
105 *15:9 0.0020384107459200003
106 _131_:A 0.00031423335744000004
107 _167_:B 0
*RES
136 *15:1 _131_:A 4.517857142857142
137 *15:2 *15:3 22.00892857142857
138 *15:4 *15:5 1.4053000000000002
139 *15:6 _167_:B 0.8214285714285714
140 *15:3 *15:7 5.160714285714286
141 _130_:X *15:8 0.30357142857142855
142 *15:9 *15:8 21.357142857142858
143 _131_:A *15:9 0.6071428571428571
144 _131_:A _131_:A 2.464285714285714
145 _131_:A _131_:A 0
146 *15:1 *15:3 0
147 *15:2 *15:5 0
148 _167_:B _167_:B 0
149 *15:6 *15:7 0
150 _130_:X _130_:X 0
*END

*D_NET *16 0.00125370128304
*CONN
*P rempty I
*I _126_:A I
*CAP
108 *16:1 0.00042105240893999997
109 *16:3 0.0008326488740999999
110 _126_:A 0
111 *16:2 0
*RES
151 *16:1 *16:2 4.705357142857142
152 *16:3 *16:4 1.4773666666666667
153 _126_:A _126_:A 0
154 _126_:A *16:1 0
155 *16:2 *16:3 0
*END

*D_NET *17 0.006549123183860001
*CONN
*P reset I
*I _184_:A I
*I _181_:A I
*I _173_:B1 I
*CAP
112 _184_:A 0.0005181217564799999
113 *17:2 0.00048725884264
114 *17:4 0.0007909941392
115 *17:6 0.00177166365642
116 *17:8 0.0005204194400200001
117 *17:10 0.0012684947603
118 _181_:A 0.00075201237024
119 *17:11 0.00044015821855999997
120 *17:1 0
121 *17:5 0
122 _173_:B1 0
*RES
156 _184_:A *17:1 5.339285714285714
157 *17:2 *17:3 5.4642857142857135
158 *17:4 *17:5 8.214285714285714
159 *17:6 *17:7 20.187499999999996
160 *17:8 *17:9 0.4107142857142857
161 *17:8 *17:2 5.3125
162 *17:10 *17:9 14.419642857142854
163 _181_:A _173_:B1 7.803571428571428
164 *17:11 _181_:A 4.517857142857142
165 *17:1 *17:10 0
166 _184_:A _184_:A 0
167 *17:11 *17:2 0
168 *17:5 *17:3 0
169 *17:4 *17:6 0
170 _181_:A _181_:A 0
171 _173_:B1 _173_:B1 0
*END

*D_NET *18 0.0016431886364199999
*CONN
*P reseto O
*I _184_:X O
*CAP
123 *18:1 0.00124201218682
124 *18:3 0.00040117644959999997
125 _184_:X 0
*RES
172 *18:1 *18:2 14.116071428571427
173 *18:3 _184_:X 4.107142857142857
174 *18:3 *18:2 0
175 _184_:X _184_:X 0
*END

*D_NET *19 0.0013408898812
*CONN
*P rin[0] I
*I _147_:A I
*CAP
126 *19:1 4.017137184e-05
127 *19:2 0.00012830406688
128 *19:3 0.00010326152718000001
129 *19:5 0.0010691529153
130 _147_:A 0
*RES
176 *19:1 _147_:A 0.30357142857142855
177 *19:2 *19:1 1.232142857142857
178 *19:3 *19:4 1.0624999999999998
179 *19:5 *19:6 1.9097666666666666
180 _147_:A _147_:A 0
181 *19:2 *19:4 0
182 *19:3 *19:5 0
*END

*D_NET *20 0.0031573813734
*CONN
*P rin[1] I
*I _130_:B1 I
*CAP
131 *20:1 0.0012268222761
132 *20:3 0.0019305590973
133 _130_:B1 0
*RES
183 *20:1 *20:2 2.198033333333333
184 *20:3 *20:4 22.00892857142857
185 *20:3 *20:1 0
186 _130_:B1 _130_:B1 0
187 _130_:B1 *20:4 0
*END

*D_NET *21 0.0030008477732
*CONN
*P rout[0] O
*I _146_:B I
*I _145_:X O
*CAP
134 *21:1 0.0011874049358999998
135 *21:3 0.00016728583584
136 _145_:X 0.00024524937376
137 *21:5 0.0014009076277000003
138 *21:6 0
139 _146_:B 0
140 *21:4 0
*RES
188 *21:1 *21:2 2.125966666666667
189 *21:3 _146_:B 1.6428571428571428
190 _145_:X *21:4 2.464285714285714
191 *21:5 *21:6 15.9375
192 *21:6 *21:1 0
193 _146_:B _146_:B 0
194 *21:3 *21:5 0
195 _145_:X _145_:X 0
196 *21:4 *21:7 0
*END

*D_NET *22 0.00491888965896
*CONN
*P rout[1] O
*I _130_:A2 I
*I _129_:X O
*CAP
141 *22:1 0.00012830406688
142 *22:2 0.00195704167078
143 *22:4 0.0011085702555
144 _129_:X 5.034052896000001e-05
145 *22:6 0.00014298538739999998
146 *22:8 0.0015316477494400002
147 _130_:A2 0
148 *22:3 0
149 *22:9 0
*RES
197 *22:1 _130_:A2 1.232142857142857
198 *22:2 *22:3 22.312499999999996
199 *22:4 *22:5 1.9818333333333336
200 _129_:X _129_:X 0.4107142857142857
201 *22:6 *22:7 1.5178571428571426
202 *22:8 *22:9 16.017857142857142
203 _130_:A2 _130_:A2 0
204 *22:1 *22:2 0
205 *22:3 *22:4 0
206 _129_:X _129_:X 0
207 _129_:X *22:7 0
208 *22:8 *22:6 0
209 *22:9 *22:10 0
*END

*D_NET *23 0.0008546481621
*CONN
*P uempty I
*I _102_:A I
*CAP
150 _102_:A 8.932229792e-05
151 *23:2 0.00076532586418
152 *23:1 0
*RES
210 _102_:A *23:1 0.8214285714285714
211 *23:2 *23:3 8.651785714285714
212 _102_:A _102_:A 0
213 *23:1 *23:2 0
*END

*D_NET *24 0.0012552686912600001
*CONN
*P uin[0] I
*I _103_:A I
*CAP
153 *24:1 0.00012830406688
154 *24:2 0.00014298538739999998
155 *24:4 0.00025559370522000005
156 *24:6 0.0007283855317600001
157 _103_:A 0
*RES
214 *24:1 _103_:A 1.232142857142857
215 *24:2 *24:3 1.5178571428571426
216 *24:4 *24:3 0.4107142857142857
217 *24:4 *24:5 2.276785714285714
218 *24:6 *24:5 0.8214285714285714
219 *24:6 *24:7 7.285714285714286
220 _103_:A _103_:A 0
221 *24:1 *24:2 0
*END

*D_NET *25 0.0011275205448199998
*CONN
*P uin[1] I
*I _157_:B I
*CAP
158 *25:1 0.0003621946806399999
159 *25:2 0.00076532586418
160 _157_:B 0
*RES
222 *25:1 _157_:B 3.6964285714285707
223 *25:2 *25:3 8.651785714285714
224 *25:1 *25:2 0
225 _157_:B _157_:B 0
*END

*D_NET *26 0.006551099824180001
*CONN
*P uout[0] O
*I _158_:C I
*I _116_:A I
*I _112_:Y O
*CAP
161 _116_:A 0.0003621946806399999
162 *26:2 0.0006752384351999999
163 *26:4 0.00271179501496
164 _112_:Y 0.0002062676048
165 _158_:C 0.00028423114272
166 *26:8 0.00022243310784000002
167 *26:3 0.00063506706336
168 *26:11 0.0014538727746600001
169 *26:6 0
170 *26:7 0
171 *26:13 0
172 *26:10 0
*RES
226 _116_:A *26:1 3.6964285714285707
227 *26:2 *26:1 0.30357142857142855
228 *26:2 *26:3 6.571428571428571
229 *26:4 *26:5 30.96428571428571
230 _112_:Y *26:6 2.0535714285714284
231 _158_:C *26:7 2.875
232 *26:8 *26:9 2.4285714285714284
233 *26:3 *26:10 6.571428571428571
234 *26:11 *26:12 16.544642857142858
235 _116_:A _116_:A 0
236 *26:3 *26:5 0
237 *26:6 *26:4 0
238 _112_:Y _112_:Y 0
239 _158_:C _158_:C 0
240 *26:7 *26:9 0
241 *26:13 *26:8 0
242 *26:10 *26:11 0
*END

*D_NET *27 0.005870352308580001
*CONN
*P uout[1] O
*I _158_:B I
*I _101_:C I
*I _100_:X O
*CAP
173 _158_:B 0.0004791399875199999
174 *27:2 0.00088879073472
175 *27:4 0.00204973067796
176 _100_:X 0.00016728583584
177 *27:7 0.0010169103122400001
178 *27:8 0.0012684947603
179 *27:3 0
180 _101_:C 0
181 *27:6 0
*RES
243 _158_:B *27:1 4.928571428571428
244 *27:2 *27:1 0.9107142857142857
245 *27:2 *27:3 8.214285714285714
246 *27:4 *27:5 23.374999999999996
247 _100_:X *27:6 1.6428571428571428
248 *27:7 *27:4 11.535714285714285
249 *27:8 *27:9 14.419642857142854
250 _158_:B _158_:B 0
251 *27:3 *27:8 0
252 _101_:C _101_:C 0
253 _101_:C *27:4 0
254 *27:2 *27:5 0
255 _100_:X _100_:X 0
256 *27:6 *27:7 0
*END

*D_NET *28 0.0090184922661
*CONN
*P vempty O
*I _185_:A I
*I _093_:B I
*I _092_:X O
*CAP
182 _185_:A 4.017137184e-05
183 _093_:B 0.0004791399875199999
184 *28:3 4.017137184e-05
185 *28:4 0.00044015821855999997
186 *28:6 0.00088879073472
187 *28:7 4.017137184e-05
188 *28:1 0.00172655659424
189 _092_:X 0.0003621946806399999
190 *28:9 0.00040117644959999997
191 *28:11 0.00011650281392
192 *28:13 0.00177166365642
193 *28:15 0.00271179501496
194 *28:2 0
195 *28:8 0
196 *28:10 0
*RES
257 _185_:A *28:1 0.30357142857142855
258 _093_:B *28:2 4.928571428571428
259 *28:3 *28:4 0.30357142857142855
260 *28:4 *28:5 4.517857142857142
261 *28:6 *28:5 0.9107142857142857
262 *28:6 *28:7 8.214285714285714
263 *28:7 _093_:B 0.30357142857142855
264 *28:1 *28:3 18.07142857142857
265 _092_:X *28:8 3.6964285714285707
266 *28:9 *28:10 4.107142857142857
267 *28:11 *28:12 1.2142857142857142
268 *28:13 *28:14 20.187499999999996
269 *28:15 *28:16 30.96428571428571
270 _185_:A _185_:A 0
271 _093_:B _093_:B 0
272 *28:2 *28:15 0
273 _092_:X _092_:X 0
274 *28:8 *28:16 0
275 *28:9 *28:13 0
276 *28:10 *28:12 0
277 _092_:X *28:11 0
*END

*D_NET *29 0.00260585940026
*CONN
*P vempty2 O
*I _185_:X O
*CAP
197 *29:1 0.0006064304233
198 _185_:X 0.00199942897696
199 *29:3 0
*RES
278 *29:1 *29:2 6.830357142857142
279 _185_:X *29:3 20.94642857142857
280 _185_:X _185_:X 0
281 *29:3 *29:2 0
*END

*D_NET *30 0.0031339103313999996
*CONN
*I _132_:B I
*I _124_:X O
*CAP
200 *30:1 0.00035484597524
201 _124_:X 0.00277906435616
202 *30:3 0
203 _132_:B 0
*RES
282 *30:1 *30:2 3.946428571428571
283 _124_:X *30:3 29.16071428571428
284 _124_:X _124_:X 0
285 *30:3 *30:1 0
286 _132_:B _132_:B 0
287 _132_:B *30:2 0
*END

*D_NET *31 0.0007604749724000001
*CONN
*I _127_:A I
*I _126_:X O
*CAP
204 _127_:A 0.00016728583584
205 *31:2 0.00059318913656
206 *31:1 0
207 _126_:X 0
*RES
288 _127_:A *31:1 1.6428571428571428
289 *31:2 *31:3 6.678571428571428
290 _127_:A _127_:A 0
291 *31:1 *31:3 0
292 _126_:X _126_:X 0
293 _126_:X *31:2 0
*END

*D_NET *32 0.00217930884416
*CONN
*I _146_:A I
*I _130_:B2 I
*I _128_:A I
*I _127_:X O
*CAP
208 *32:1 0.00130821862052
209 _146_:A 8.932229792e-05
210 _130_:B2 4.017137184e-05
211 *32:4 0.00032321291168
212 *32:6 0.00019595053436
213 *32:7 0.00022243310784000002
214 _127_:X 0
215 *32:3 0
216 *32:5 0
217 _128_:A 0
218 *32:9 0
*RES
294 *32:1 *32:2 14.874999999999998
295 _146_:A *32:3 0.8214285714285714
296 _130_:B2 *32:4 0.30357142857142855
297 *32:4 *32:5 3.2857142857142856
298 *32:6 *32:1 2.1249999999999996
299 *32:7 *32:8 2.4285714285714284
300 _127_:X _127_:X 0
301 _127_:X *32:1 0
302 *32:3 *32:2 0
303 _146_:A _146_:A 0
304 _130_:B2 _130_:B2 0
305 *32:5 *32:6 0
306 _128_:A _128_:A 0
307 _128_:A *32:7 0
308 *32:9 *32:8 0
*END

*D_NET *33 0.00111126131452
*CONN
*I _147_:B I
*I _130_:A1 I
*I _128_:Y O
*CAP
219 _128_:Y 5.034052896000001e-05
220 *33:2 0.00056670656308
221 *33:4 0.00012830406688
222 _147_:B 4.017137184e-05
223 _130_:A1 5.034052896000001e-05
224 *33:3 0.0002753982548
225 *33:1 0
226 *33:5 0
227 *33:6 0
*RES
309 _128_:Y *33:1 0.4107142857142857
310 *33:2 *33:3 6.374999999999999
311 *33:4 *33:5 1.232142857142857
312 _147_:B *33:4 0.30357142857142855
313 _130_:A1 *33:6 0.4107142857142857
314 *33:3 *33:7 3.035714285714285
315 _128_:Y _128_:Y 0
316 *33:1 *33:3 0
317 *33:5 *33:2 0
318 _147_:B _147_:B 0
319 _130_:A1 _130_:A1 0
320 *33:6 *33:7 0
*END

*D_NET *34 0.0024795119081199996
*CONN
*I _132_:C I
*I _131_:Y O
*CAP
228 *34:1 8.932229792e-05
229 *34:2 0.00014298538739999998
230 *34:4 0.0014147024425599998
231 *34:6 0.0002753982548
232 _131_:Y 0.00055710352544
233 _132_:C 0
234 *34:5 0
235 *34:8 0
*RES
321 *34:1 _132_:C 0.8214285714285714
322 *34:2 *34:3 1.5178571428571426
323 *34:4 *34:5 14.785714285714283
324 *34:6 *34:7 3.035714285714285
325 _131_:Y *34:8 5.75
326 _132_:C _132_:C 0
327 *34:1 *34:3 0
328 *34:5 *34:2 0
329 *34:4 *34:7 0
330 *34:8 *34:6 0
331 _131_:Y _131_:Y 0
*END

*D_NET *35 0.00455056207812
*CONN
*I _177_:A I
*I _133_:B I
*I _132_:X O
*CAP
236 *35:1 0.00077856715092
237 *35:3 0.0025451737424
238 *35:5 4.017137184e-05
239 _177_:A 0.0003621946806399999
240 *35:2 0.0005402239896
241 _133_:B 0.00028423114272
242 _132_:X 0
243 *35:4 0
244 *35:6 0
*RES
332 *35:1 *35:2 8.803571428571427
333 *35:3 *35:4 26.696428571428566
334 *35:5 *35:3 0.30357142857142855
335 _177_:A *35:6 3.6964285714285707
336 *35:2 *35:7 6.07142857142857
337 _133_:B *35:5 2.875
338 _133_:B _133_:B 0
339 _132_:X _132_:X 0
340 _132_:X *35:2 0
341 *35:4 *35:1 0
342 _177_:A _177_:A 0
343 *35:6 *35:7 0
*END

*D_NET *36 0.0008435659605999998
*CONN
*I _134_:B I
*I _133_:Y O
*CAP
245 *36:1 0.0005582931283199999
246 *36:2 0.00019595053436
247 _133_:Y 8.932229792e-05
248 _134_:B 0
249 *36:5 0
250 *36:4 0
*RES
344 *36:1 _134_:B 0.30357142857142855
345 *36:2 *36:3 2.1249999999999996
346 _133_:Y *36:4 0.8214285714285714
347 *36:1 *36:5 5.339285714285714
348 _134_:B _134_:B 0
349 *36:5 *36:3 0
350 *36:4 *36:2 0
351 _133_:Y _133_:Y 0
*END

*D_NET *37 0.0008328455272799999
*CONN
*I _135_:B I
*I _134_:Y O
*CAP
251 _134_:Y 0.00028423114272
252 *37:2 0.00038132854871999994
253 *37:4 0.00016728583584
254 *37:1 0
255 _135_:B 0
*RES
352 _134_:Y *37:1 2.875
353 *37:2 *37:3 4.249999999999999
354 *37:4 _135_:B 1.6428571428571428
355 _134_:Y _134_:Y 0
356 *37:1 *37:2 0
357 *37:4 *37:3 0
358 _135_:B _135_:B 0
*END

*D_NET *38 0.00121432198932
*CONN
*I _137_:B I
*I _136_:Y O
*CAP
256 _136_:Y 0.00044015821855999997
257 *38:2 0.00056670656308
258 *38:4 0.00016728583584
259 *38:5 4.017137184e-05
260 *38:1 0
261 _137_:B 0
*RES
359 _136_:Y *38:1 4.517857142857142
360 *38:2 *38:3 6.374999999999999
361 *38:4 *38:5 1.6428571428571428
362 *38:5 _137_:B 0.30357142857142855
363 _136_:Y _136_:Y 0
364 *38:1 *38:2 0
365 *38:4 *38:3 0
366 _137_:B _137_:B 0
*END

*D_NET *39 0.0018730717586800001
*CONN
*I _167_:A I
*I _165_:A I
*I _139_:B I
*I _138_:Y O
*CAP
262 _138_:Y 0.0002062676048
263 *39:2 0.00040124785936
264 *39:5 6.353766696000002e-05
265 _139_:B 5.034052896000001e-05
266 *39:3 0.00046077626916000004
267 _165_:A 0.0002062676048
268 *39:7 0.00043429369568000003
269 *39:10 5.034052896000001e-05
270 *39:1 0
271 *39:6 0
272 *39:8 0
273 _167_:A 0
*RES
367 _138_:Y *39:1 2.0535714285714284
368 *39:2 *39:3 3.946428571428571
369 *39:2 *39:4 0.4107142857142857
370 *39:5 *39:4 0.6071428571428571
371 _139_:B *39:6 0.4107142857142857
372 *39:3 *39:7 5.160714285714286
373 _165_:A *39:8 2.0535714285714284
374 *39:7 *39:9 4.857142857142857
375 *39:10 _167_:A 0.4107142857142857
376 _138_:Y _138_:Y 0
377 *39:1 *39:3 0
378 *39:10 *39:5 0
379 _139_:B _139_:B 0
380 *39:6 *39:7 0
381 _165_:A _165_:A 0
382 *39:8 *39:9 0
383 _167_:A _167_:A 0
*END

*D_NET *40 0.0031665964673200002
*CONN
*I _180_:D I
*I _169_:B I
*I _140_:B I
*I _139_:X O
*CAP
274 _139_:X 0.00032321291168
275 *40:2 0.00059318913656
276 *40:4 0.0005960852944
277 *40:5 4.017137184e-05
278 *40:6 0.00011650281392
279 *40:8 0.0004791399875199999
280 *40:9 4.640188412000001e-05
281 *40:10 0.00024891568132000004
282 _169_:B 5.034052896000001e-05
283 *40:3 0.0006726368570000002
284 *40:1 0
285 _180_:D 0
286 _140_:B 0
287 *40:12 0
*RES
384 _139_:X *40:1 3.2857142857142856
385 *40:2 *40:3 6.678571428571428
386 *40:4 *40:5 6.160714285714286
387 *40:5 _180_:D 0.30357142857142855
388 *40:6 *40:7 1.2142857142857142
389 *40:8 _139_:X 4.928571428571428
390 *40:9 *40:10 0.4107142857142857
391 *40:10 *40:11 2.7321428571428568
392 _169_:B *40:12 0.4107142857142857
393 *40:3 *40:9 7.5892857142857135
394 _139_:X _139_:X 0
395 *40:1 *40:3 0
396 *40:4 *40:2 0
397 _180_:D _180_:D 0
398 _140_:B _140_:B 0
399 _140_:B *40:6 0
400 *40:8 *40:7 0
401 *40:12 *40:11 0
402 _169_:B _169_:B 0
*END

*D_NET *41 0.00293459810644
*CONN
*I _144_:A I
*I _140_:X O
*CAP
288 *41:1 0.00014298538739999998
289 *41:3 4.017137184e-05
290 *41:4 0.0005960852944
291 *41:5 0.0021553560528000002
292 _140_:X 0
293 _144_:A 0
*RES
403 *41:1 *41:2 1.5178571428571426
404 *41:3 *41:4 0.30357142857142855
405 *41:4 _144_:A 6.160714285714286
406 *41:5 *41:3 22.58928571428571
407 _140_:X _140_:X 0
408 _140_:X *41:1 0
409 *41:5 *41:2 0
410 _144_:A _144_:A 0
*END

*D_NET *42 0.00232333983116
*CONN
*I _143_:B I
*I _141_:X O
*CAP
294 *42:1 0.00223331959072
295 *42:2 9.002024044000002e-05
296 _143_:B 0
297 _141_:X 0
*RES
411 *42:1 _143_:B 23.41071428571428
412 *42:2 *42:3 0.9107142857142857
413 _143_:B _143_:B 0
414 *42:1 *42:2 0
415 _141_:X _141_:X 0
416 _141_:X *42:3 0
*END

*D_NET *43 0.0020796238073200004
*CONN
*I _143_:C I
*I _142_:X O
*CAP
298 *43:1 0.00019595053436
299 *43:3 0.0018836732729600003
300 _143_:C 0
301 *43:4 0
302 _142_:X 0
*RES
417 *43:1 *43:2 2.1249999999999996
418 *43:3 *43:4 19.303571428571427
419 *43:3 _142_:X 0.30357142857142855
420 _143_:C _143_:C 0
421 _143_:C *43:1 0
422 *43:4 *43:2 0
423 _142_:X _142_:X 0
*END

*D_NET *44 0.00114584011444
*CONN
*I _144_:B I
*I _143_:X O
*CAP
303 *44:1 0.00035484597524
304 _144_:B 0.0007909941392
305 _143_:X 0
306 *44:3 0
*RES
424 *44:1 *44:2 3.946428571428571
425 _144_:B *44:3 8.214285714285714
426 _143_:X _143_:X 0
427 _143_:X *44:1 0
428 *44:3 *44:2 0
429 _144_:B _144_:B 0
*END

*D_NET *45 0.00025879025880000005
*CONN
*I _145_:A I
*I _144_:X O
*CAP
307 *45:1 8.932229792e-05
308 *45:2 0.00016946796088000002
309 _144_:X 0
310 _145_:A 0
*RES
430 *45:1 _144_:X 0.8214285714285714
431 *45:2 *45:3 1.8214285714285714
432 _144_:X _144_:X 0
433 *45:1 *45:2 0
434 _145_:A _145_:A 0
435 _145_:A *45:3 0
*END

*D_NET *46 0.00566981986824
*CONN
*I _166_:A I
*I _149_:A1 I
*I _146_:Y O
*CAP
311 *46:1 8.932229792e-05
312 *46:2 4.017137184e-05
313 *46:3 0.0002062676048
314 *46:4 0.00064615428352
315 *46:6 0.0002062676048
316 *46:8 0.0009639451652800001
317 *46:10 0.00090793944608
318 _166_:A 9.779659552000001e-05
319 _146_:Y 0.00024524937376
320 *46:13 0.0010169103122400001
321 *46:15 0.0011808118288000001
322 _149_:A1 6.898398368e-05
323 *46:7 0
324 *46:11 0
325 *46:12 0
326 *46:16 0
*RES
436 *46:1 _149_:A1 0.8214285714285714
437 *46:2 *46:1 0.30357142857142855
438 *46:3 *46:2 2.0535714285714284
439 *46:4 *46:5 7.285714285714286
440 *46:6 *46:7 2.0535714285714284
441 *46:8 *46:9 10.928571428571427
442 *46:10 *46:11 9.446428571428571
443 _166_:A *46:10 0.9107142857142857
444 _146_:Y *46:12 2.464285714285714
445 *46:13 *46:14 11.535714285714285
446 *46:15 *46:16 12.321428571428571
447 _149_:A1 *46:15 0.6071428571428571
448 _149_:A1 _149_:A1 0
449 *46:3 *46:5 0
450 *46:7 *46:4 0
451 *46:6 *46:9 0
452 *46:11 *46:8 0
453 _166_:A _166_:A 0
454 _146_:Y _146_:Y 0
455 *46:12 *46:14 0
456 *46:16 *46:13 0
*END

*D_NET *47 0.004360410397840001
*CONN
*I _166_:B I
*I _149_:A2 I
*I _147_:Y O
*CAP
327 *47:1 0.00011650281392
328 *47:3 0.000985902984
329 *47:5 9.002024044000002e-05
330 *47:7 0.0014147024425599998
331 *47:9 0.00022243310784000002
332 *47:11 4.017137184e-05
333 *47:12 8.932229792e-05
334 *47:13 4.017137184e-05
335 *47:6 0.00136118376748
336 _147_:Y 0
337 *47:4 0
338 *47:8 0
339 _166_:B 0
340 _149_:A2 0
*RES
457 *47:1 *47:2 1.2142857142857142
458 *47:3 *47:4 10.267857142857142
459 *47:5 *47:6 0.9107142857142857
460 *47:7 *47:8 14.785714285714283
461 *47:9 *47:10 2.4285714285714284
462 *47:11 _149_:A2 0.30357142857142855
463 *47:12 *47:11 0.8214285714285714
464 *47:13 *47:12 0.30357142857142855
465 *47:6 *47:14 15.482142857142856
466 _147_:Y _147_:Y 0
467 _147_:Y *47:2 0
468 *47:4 *47:1 0
469 *47:3 *47:6 0
470 *47:8 *47:5 0
471 *47:7 *47:10 0
472 _166_:B _166_:B 0
473 _166_:B *47:9 0
474 _149_:A2 _149_:A2 0
475 *47:13 *47:14 0
*END

*D_NET *48 0.0023438316764
*CONN
*I _149_:C1 I
*I _148_:Y O
*CAP
341 _148_:Y 0.00032321291168
342 *48:2 0.00165249207576
343 *48:4 0.00036812668896
344 *48:1 0
345 _149_:C1 0
*RES
476 _148_:Y *48:1 3.2857142857142856
477 *48:2 *48:3 18.82142857142857
478 *48:4 _149_:C1 3.758928571428571
479 _148_:Y _148_:Y 0
480 *48:1 *48:2 0
481 *48:4 *48:3 0
482 _149_:C1 _149_:C1 0
*END

*D_NET *49 0.00329488744752
*CONN
*I _177_:C I
*I _150_:B I
*I _149_:X O
*CAP
346 _149_:X 0.00016728583584
347 *49:2 0.00155980306858
348 *49:4 4.640188412000001e-05
349 *49:5 0.00039456983545999995
350 *49:6 0.0004791399875199999
351 *49:7 4.017137184e-05
352 *49:8 0.0002062676048
353 *49:9 0.00040124785936
354 *49:1 0
355 _150_:B 0
356 _177_:C 0
*RES
483 _149_:X *49:1 1.6428571428571428
484 *49:2 *49:3 17.75892857142857
485 *49:4 *49:2 0.4107142857142857
486 *49:5 *49:4 4.4017857142857135
487 *49:6 _177_:C 4.928571428571428
488 *49:7 *49:6 0.30357142857142855
489 *49:8 *49:7 2.0535714285714284
490 *49:9 *49:10 3.946428571428571
491 *49:9 *49:3 0.4107142857142857
492 _149_:X _149_:X 0
493 *49:1 *49:3 0
494 _150_:B _150_:B 0
495 _150_:B *49:5 0
496 _177_:C _177_:C 0
497 *49:8 *49:10 0
*END

*D_NET *50 0.00270637844056
*CONN
*I _151_:B I
*I _150_:Y O
*CAP
357 *50:1 0.0008447735846200001
358 *50:3 0.0018377910492
359 *50:5 2.3813806740000006e-05
360 _151_:B 0
361 *50:6 0
362 _150_:Y 0
*RES
498 *50:1 *50:2 9.5625
499 *50:3 *50:4 3.3150666666666666
500 *50:5 *50:6 0.15178571428571427
501 _151_:B _151_:B 0
502 _151_:B *50:2 0
503 *50:1 *50:3 0
504 *50:6 *50:4 0
505 _150_:Y _150_:Y 0
506 _150_:Y *50:5 0
*END

*D_NET *51 0.00198472111772
*CONN
*I _152_:B I
*I _151_:Y O
*CAP
363 *51:1 5.034052896000001e-05
364 _151_:Y 0.00110284829088
365 *51:3 0.00083153229788
366 _152_:B 0
367 *51:2 0
*RES
507 *51:1 _152_:B 0.4107142857142857
508 _151_:Y *51:2 11.5
509 *51:3 *51:4 9.410714285714285
510 _152_:B _152_:B 0
511 *51:1 *51:3 0
512 *51:2 *51:4 0
513 _151_:Y _151_:Y 0
*END

*D_NET *52 0.0037129441319200002
*CONN
*I _160_:A I
*I _154_:A I
*I _153_:Y O
*CAP
368 _154_:A 5.034052896000001e-05
369 *52:1 9.779659552000001e-05
370 *52:2 0.0005181217564799999
371 *52:4 0.0011228406061600002
372 *52:6 0.00028423114272
373 _160_:A 6.898398368e-05
374 *52:7 0.0015706295183999998
375 *52:3 0
376 _153_:Y 0
377 *52:8 0
*RES
514 _154_:A *52:1 0.4107142857142857
515 *52:1 *52:2 0.9107142857142857
516 *52:2 *52:3 5.339285714285714
517 *52:4 *52:5 12.749999999999998
518 *52:6 _153_:Y 2.875
519 _160_:A *52:7 0.6071428571428571
520 *52:7 *52:8 16.428571428571427
521 _154_:A _154_:A 0
522 *52:3 *52:5 0
523 *52:6 *52:4 0
524 _153_:Y _153_:Y 0
525 _160_:A _160_:A 0
526 *52:8 *52:9 0
*END

*D_NET *53 0.0016946024123199999
*CONN
*I _155_:B I
*I _154_:Y O
*CAP
378 _155_:B 4.017137184e-05
379 *53:1 0.0007909941392
380 *53:3 0.0005402239896
381 *53:5 0.00032321291168
382 *53:2 0
383 _154_:Y 0
*RES
527 _155_:B *53:1 0.30357142857142855
528 *53:1 *53:2 8.214285714285714
529 *53:3 *53:4 6.07142857142857