*SPEF "IEEE 1481-1998"
*DESIGN "ycell"
*DATE "Wed Dec 02 20:35:52 2020"
*VENDOR "AUC CSCE Department"
*PROGRAM "SPEF Extractor"
*VERSION "1.0"
*DESIGN_FLOW "PIN_CAP NONE"
*DIVIDER /
*DELIMITER :
*BUS_DELIMITER []
*T_UNIT 1.00000 NS
*C_UNIT 1.00000 PF
*R_UNIT 1.00000 OHM
*L_UNIT 1.00000 HENRY


*NAME_MAP
*0 cbitin
*1 cbitout
*2 confclk
*3 dempty
*4 din[0]
*5 din[1]
*6 dout[0]
*7 dout[1]
*8 hempty
*9 lempty
*10 lin[0]
*11 lin[1]
*12 lout[0]
*13 lout[1]
*14 rempty
*15 reset
*16 rin[0]
*17 rin[1]
*18 rout[0]
*19 rout[1]
*20 uempty
*21 uin[0]
*22 uin[1]
*23 uout[0]
*24 uout[1]
*25 vempty
*26 _000_
*27 _001_
*28 _002_
*29 _003_
*30 _004_
*31 _005_
*32 _006_
*33 _007_
*34 _008_
*35 _009_
*36 _010_
*37 _011_
*38 _012_
*39 _013_
*40 _014_
*41 _015_
*42 _016_
*43 _017_
*44 _018_
*45 _019_
*46 _020_
*47 _021_
*48 _022_
*49 _023_
*50 _024_
*51 _025_
*52 _026_
*53 _027_
*54 _028_
*55 _029_
*56 _030_
*57 _031_
*58 _032_
*59 _033_
*60 _034_
*61 _035_
*62 _036_
*63 _037_
*64 _038_
*65 _039_
*66 _040_
*67 _041_
*68 _042_
*69 _043_
*70 _044_
*71 _045_
*72 _046_
*73 _047_
*74 _048_
*75 _049_
*76 _050_
*77 _051_
*78 _052_
*79 _053_
*80 _054_
*81 _055_
*82 _056_
*83 _057_
*84 _058_
*85 _059_
*86 _060_
*87 _061_
*88 _062_
*89 _063_
*90 _064_
*91 _065_
*92 _066_
*93 _067_
*94 _068_
*95 _069_
*96 _070_
*97 _071_
*98 _072_
*99 _073_
*100 _074_
*101 _075_
*102 _076_
*103 _077_
*104 _078_
*105 cfg.cnfg\[0\]
*106 cfg.cnfg\[1\]
*107 hfsm.clear
*108 hfsm.in\[1\]
*109 hfsm.lin\[0\]
*110 hfsm.lin\[1\]
*111 hfsm.lmatch\[0\]
*112 hfsm.lmatch\[1\]
*113 hfsm.nlmempty
*114 vfsm.clear
*115 vfsm.in\[1\]
*116 vfsm.lin\[0\]
*117 vfsm.lin\[1\]
*118 vfsm.lmatch\[0\]
*119 vfsm.lmatch\[1\]
*120 vfsm.nlmempty

*D_NET *0 0.0019225247386200003
*CONN
*P cbitin I
*I _182_:D I
*CAP
0 *0:1 0.00097718645202
1 *0:3 8.932229792e-05
2 *0:4 0.00071303060128
3 *0:6 0.00014298538739999998
4 _182_:D 0
5 *0:5 0
*RES
0 *0:1 *0:2 11.080357142857142
1 *0:3 _182_:D 0.8214285714285714
2 *0:4 *0:5 7.3928571428571415
3 *0:6 *0:7 1.5178571428571426
4 *0:4 *0:1 0
5 *0:3 *0:7 0
6 _182_:D _182_:D 0
7 *0:5 *0:6 0
*END

*D_NET *1 0.0063030214406199995
*CONN
*P cbitout O
*I _184_:Q O
*I _096_:A I
*I _085_:A I
*CAP
6 _096_:A 4.991681407999999e-05
7 *1:2 0.0003532151264
8 *1:3 0.0005181217564799999
9 *1:4 0.00071303060128
10 *1:5 0.00014298538739999998
11 *1:8 0.00056670656308
12 *1:10 4.640188412000001e-05
13 _085_:A 0.00012830406688
14 *1:12 0.0037843392409000003
15 *1:7 0
16 _184_:Q 0
17 *1:11 0
*RES
8 _096_:A *1:1 0.40625
9 *1:2 *1:1 0.6071428571428571
10 *1:3 *1:2 5.339285714285714
11 *1:4 _085_:A 7.3928571428571415
12 *1:5 *1:6 1.5178571428571426
13 *1:2 *1:7 2.875
14 *1:8 *1:9 6.374999999999999
15 *1:10 *1:8 0.4107142857142857
16 _085_:A *1:11 1.232142857142857
17 *1:12 *1:13 43.25892857142857
18 _096_:A _096_:A 0
19 *1:3 *1:13 0
20 _085_:A _085_:A 0
21 *1:4 *1:5 0
22 *1:7 *1:6 0
23 _184_:Q _184_:Q 0
24 _184_:Q *1:9 0
25 *1:11 *1:10 0
*END

*D_NET *2 0.00281467470838
*CONN
*P confclk I
*I _184_:CLK I
*I _183_:CLK I
*I _182_:CLK I
*CAP
18 *2:1 0.00105663417246
19 *2:3 5.034052896000001e-05
20 _184_:CLK 8.932229792e-05
21 *2:5 2.3813806740000006e-05
22 *2:6 4.640188412000001e-05
23 *2:7 0.00020919182110000001
24 *2:9 4.017137184e-05
25 *2:10 0.00110284829088
26 *2:8 0.00019595053436
27 _182_:CLK 0
28 _183_:CLK 0
29 *2:4 0
*RES
26 *2:1 *2:2 11.991071428571427
27 *2:3 _183_:CLK 0.4107142857142857
28 _184_:CLK *2:4 0.8214285714285714
29 *2:5 *2:6 0.15178571428571427
30 *2:6 *2:7 0.4107142857142857
31 *2:7 *2:8 2.276785714285714
32 *2:9 *2:3 0.30357142857142855
33 *2:10 *2:9 11.5
34 *2:8 *2:11 2.1249999999999996
35 *2:10 *2:1 0
36 _182_:CLK _182_:CLK 0
37 _182_:CLK *2:11 0
38 _183_:CLK _183_:CLK 0
39 *2:3 *2:8 0
40 _184_:CLK _184_:CLK 0
41 *2:4 *2:5 0
*END

*D_NET *3 0.00316839529506
*CONN
*P dempty I
*I _093_:A I
*CAP
30 *3:1 0.00071303060128
31 *3:3 0.00104339288572
32 *3:5 4.017137184e-05
33 _093_:A 5.034052896000001e-05
34 *3:7 0.0013214599072599999
35 *3:2 0
*RES
42 *3:1 *3:2 7.3928571428571415
43 *3:3 *3:4 11.839285714285714
44 *3:5 *3:6 0.30357142857142855
45 _093_:A *3:6 0.4107142857142857
46 *3:7 *3:8 15.026785714285712
47 *3:1 *3:8 0
48 *3:2 *3:3 0
49 *3:5 *3:4 0
50 _093_:A _093_:A 0
*END

*D_NET *4 0.00514089791282
*CONN
*P din[0] I
*I _111_:A I
*CAP
36 *4:1 8.223124824000001e-05
37 *4:2 0.00048725884264
38 *4:4 0.00114183005984
39 *4:6 0.0021556609718800003
40 _111_:A 0.00032321291168
41 *4:9 0.0009507038785400001
42 *4:5 0
43 *4:8 0
*RES
51 *4:1 *4:2 0.8214285714285714
52 *4:2 *4:3 5.4642857142857135
53 *4:4 *4:5 11.910714285714285
54 *4:6 *4:7 24.58928571428571
55 _111_:A *4:8 3.2857142857142856
56 *4:9 *4:1 10.776785714285714
57 *4:4 *4:9 0
58 *4:5 *4:7 0
59 *4:8 *4:6 0
60 _111_:A _111_:A 0
*END

*D_NET *5 0.00113025537344
*CONN
*P din[1] I
*I _100_:B1 I
*CAP
44 *5:1 0.00016847543872000001
45 *5:3 5.029638022e-05
46 *5:5 0.0009114835544999999
47 _100_:B1 0
48 *5:2 0
*RES
61 *5:1 _100_:B1 0.30357142857142855
62 *5:1 *5:2 1.232142857142857
63 *5:3 *5:4 0.45535714285714285
64 *5:5 *5:6 1.6215
65 _100_:B1 _100_:B1 0
66 *5:2 *5:4 0
67 *5:3 *5:5 0
*END

*D_NET *6 0.00274771044936
*CONN
*P dout[0] O
*I _110_:B I
*I _109_:X O
*CAP
49 *6:1 0.0002062676048
50 *6:2 0.0011890470398600002
51 *6:4 0.0008720662143000001
52 _110_:B 4.017137184e-05
53 *6:6 0.00044015821855999997
54 _109_:X 0
55 *6:7 0
*RES
68 *6:1 _109_:X 2.0535714285714284
69 *6:2 *6:3 13.508928571428571
70 *6:4 *6:5 1.5494333333333334
71 _110_:B *6:6 0.30357142857142855
72 *6:6 *6:7 4.517857142857142
73 _109_:X _109_:X 0
74 *6:1 *6:3 0
75 *6:2 *6:4 0
76 _110_:B _110_:B 0
77 *6:7 *6:8 0
*END

*D_NET *7 0.00291812950618
*CONN
*P dout[1] O
*I _100_:A2 I
*I _099_:X O
*CAP
56 *7:1 0.00016946796088000002
57 _099_:X 0.00145368421152
58 *7:4 0.0012949773337799998
59 _100_:A2 0
60 *7:3 0
61 *7:6 0
*RES
78 *7:1 *7:2 1.8214285714285714
79 _099_:X *7:3 15.19642857142857
80 *7:4 *7:5 14.723214285714283
81 _100_:A2 _100_:A2 0
82 _100_:A2 *7:1 0
83 *7:3 *7:2 0
84 _099_:X _099_:X 0
85 *7:6 *7:4 0
*END

*D_NET *8 0.0068221780115000005
*CONN
*P hempty O
*I _181_:B I
*I _126_:B I
*I _125_:X O
*CAP
62 _125_:X 0.00012830406688
63 *8:2 0.0004078111222
64 *8:4 0.00028423114272
65 *8:5 0.00032836340175999997
66 *8:7 0.00320786381472
67 *8:9 7.67789537e-05
68 *8:11 5.034052896000001e-05
69 *8:13 0.0014169324422400003
70 *8:16 0.00024891568132000004
71 *8:3 0.0006726368570000002
72 *8:1 0
73 _126_:B 0
74 _181_:B 0
75 *8:8 0
76 *8:12 0
77 *8:18 0
*RES
86 _125_:X *8:1 1.232142857142857
87 *8:2 *8:3 4.553571428571428
88 *8:4 _126_:B 2.875
89 *8:5 *8:6 3.642857142857143
90 *8:7 *8:8 33.67857142857142
91 *8:9 *8:10 0.7589285714285713
92 *8:11 *8:12 0.4107142857142857
93 *8:13 *8:14 15.178571428571427
94 *8:13 *8:15 0.8214285714285714
95 *8:16 *8:15 2.7321428571428568
96 *8:3 *8:17 7.5892857142857135
97 _125_:X _125_:X 0
98 *8:1 *8:3 0
99 *8:4 *8:2 0
100 _126_:B _126_:B 0
101 _181_:B _181_:B 0
102 _181_:B *8:5 0
103 *8:7 *8:6 0
104 *8:8 *8:17 0
105 *8:12 *8:9 0
106 *8:11 *8:14 0
107 *8:18 *8:16 0
*END

*D_NET *9 0.0019182177802000004
*CONN
*P lempty I
*I _138_:A I
*CAP
78 *9:1 0.0005173101524999999
79 *9:3 0.0014009076277000003
80 _138_:A 0
*RES
108 *9:1 *9:2 0.9008333333333334
109 *9:3 *9:4 15.9375
110 *9:3 *9:2 0
111 _138_:A _138_:A 0
112 _138_:A *9:4 0
*END

*D_NET *10 0.002039697773
*CONN
*P lin[0] I
*I _139_:A I
*CAP
81 *10:1 0.0006858781437400002
82 *10:3 0.0011085702555
83 _139_:A 0.00024524937376
84 *10:5 0
*RES
113 *10:1 *10:2 7.741071428571428
114 *10:3 *10:4 1.9818333333333336
115 _139_:A *10:5 2.464285714285714
116 _139_:A _139_:A 0
117 *10:1 *10:4 0
118 *10:5 *10:2 0
*END

*D_NET *11 0.00429281869932
*CONN
*P lin[1] I
*I _165_:B I
*CAP
85 *11:1 0.0004030859631
86 *11:3 0.0008917748843999999
87 _165_:B 4.017137184e-05
88 *11:5 0.0002062676048
89 *11:7 0.00275151887518
90 *11:8 0
91 *11:6 0
*RES
119 *11:1 *11:2 0.10653333333333334
120 *11:3 *11:2 1.5854666666666666
121 *11:1 *11:4 0.5405000000000001
122 _165_:B *11:5 0.30357142857142855
123 *11:5 *11:6 2.0535714285714284
124 *11:7 *11:8 31.41964285714285
125 *11:8 *11:4 0
126 _165_:B _165_:B 0
127 *11:6 *11:7 0
*END

*D_NET *12 0.00729454965078
*CONN
*P lout[0] O
*I _167_:C I
*I _166_:Y O
*CAP
92 *12:1 7.67789537e-05
93 *12:3 4.43020701e-05
94 *12:5 0.00203425332372
95 *12:7 0.0001625540907
96 *12:9 0.0004791399875199999
97 *12:11 0.0007256020039600001
98 *12:13 0.00012830406688
99 *12:15 0.00124201218682
100 *12:17 6.353766696000002e-05
101 *12:19 0.0021553560528000002
102 *12:21 0.00018270924762000003
103 _166_:Y 0
104 *12:2 0
105 *12:4 0
106 *12:8 0
107 *12:10 0
108 *12:14 0
109 _167_:C 0
110 *12:20 0
*RES
128 *12:1 *12:2 0.7589285714285713
129 *12:3 *12:4 0.036033333333333334
130 *12:5 *12:6 4.1548
131 *12:7 *12:8 0.25223333333333336
132 *12:9 *12:10 4.928571428571428
133 *12:11 *12:12 8.196428571428571
134 *12:13 *12:14 1.232142857142857
135 *12:15 *12:16 14.116071428571427
136 *12:17 *12:18 0.6071428571428571
137 *12:19 *12:20 22.58928571428571
138 *12:21 *12:22 1.9732142857142856
139 _166_:Y _166_:Y 0
140 _166_:Y *12:1 0
141 *12:2 *12:3 0
142 *12:4 *12:5 0
143 *12:8 *12:6 0
144 *12:21 *12:7 0
145 *12:10 *12:22 0
146 *12:9 *12:11 0
147 *12:13 *12:12 0
148 *12:14 *12:15 0
149 _167_:C _167_:C 0
150 _167_:C *12:17 0
151 *12:19 *12:18 0
152 *12:20 *12:23 0
*END

*D_NET *13 0.00579710205064
*CONN
*P lout[1] O
*I _167_:B I
*I _131_:A I
*I _130_:X O
*CAP
111 _167_:B 4.017137184e-05
112 *13:2 8.932229792e-05
113 *13:3 0.00052698270286
114 *13:5 0.0013844916368999996
115 _131_:A 9.051190080000001e-05
116 *13:7 0.0005181217564799999
117 *13:8 4.017137184e-05
118 *13:9 0.00227230135968
119 *13:11 0.0004078111222
120 *13:1 0.00028423114272
121 *13:15 0.00014298538739999998
122 _130_:X 0
123 *13:4 0
124 *13:10 0
125 *13:14 0
126 *13:13 0
*RES
153 _167_:B *13:1 0.30357142857142855
154 *13:2 _130_:X 0.8214285714285714
155 *13:3 *13:4 5.919642857142857
156 *13:5 *13:6 2.4863
157 _131_:A *13:7 0.30357142857142855
158 *13:7 *13:8 5.339285714285714
159 *13:8 *13:9 0.30357142857142855
160 *13:9 *13:10 23.82142857142857
161 *13:11 *13:12 4.553571428571428
162 _131_:A *13:13 0.4107142857142857
163 *13:1 *13:14 2.875
164 *13:15 *13:3 1.5178571428571426
165 _167_:B _167_:B 0
166 _130_:X _130_:X 0
167 *13:2 *13:3 0
168 *13:4 *13:5 0
169 _131_:A _131_:A 0
170 *13:10 *13:15 0
171 *13:14 *13:11 0
172 *13:13 *13:12 0
*END

*D_NET *14 0.0041170265093600006
*CONN
*P rempty I
*I _126_:A I
*CAP
127 *14:1 0.0007143968535
128 *14:3 0.00071303060128
129 *14:5 0.00197028295752
130 *14:7 0.00012830406688
131 *14:8 4.017137184e-05
132 *14:9 5.034052896000001e-05
133 *14:10 0.0005005001293800001
134 *14:4 0
135 _126_:A 0
*RES
173 *14:1 *14:2 1.2611666666666668
174 *14:3 *14:4 7.3928571428571415
175 *14:5 *14:6 22.46428571428571
176 *14:7 *14:8 1.232142857142857
177 *14:8 *14:9 0.30357142857142855
178 *14:9 _126_:A 0.4107142857142857
179 *14:10 *14:11 5.616071428571428
180 *14:10 *14:1 0
181 *14:4 *14:11 0
182 *14:3 *14:5 0
183 *14:7 *14:6 0
184 _126_:A _126_:A 0
*END

*D_NET *15 0.005384615229420001
*CONN
*P reset I
*I _181_:A I
*I _173_:B1 I
*CAP
136 _181_:A 5.034052896000001e-05
137 *15:2 0.0004791399875199999
138 *15:4 0.00097718645202
139 *15:6 0.0012287709000800002
140 *15:8 0.00014298538739999998
141 *15:10 0.00250619197344
142 *15:1 0
143 *15:3 0
144 *15:11 0
145 _173_:B1 0
*RES
185 _181_:A *15:1 0.4107142857142857
186 *15:2 *15:3 4.928571428571428
187 *15:4 *15:5 11.080357142857142
188 *15:6 *15:7 13.964285714285714
189 *15:8 *15:9 1.5178571428571426
190 *15:10 *15:11 26.285714285714285
191 *15:10 *15:7 0
192 *15:1 *15:6 0
193 _181_:A _181_:A 0
194 *15:2 *15:4 0
195 *15:3 *15:12 0
196 *15:11 *15:9 0
197 _173_:B1 _173_:B1 0
198 _173_:B1 *15:8 0
*END

*D_NET *16 0.001661863074
*CONN
*P rin[0] I
*I _147_:A I
*CAP
146 *16:1 5.034052896000001e-05
147 *16:2 0.00081829101114
148 *16:4 0.0007932315339000001
149 _147_:A 0
150 *16:3 0
*RES
199 *16:1 _147_:A 0.4107142857142857
200 *16:2 *16:3 9.25892857142857
201 *16:4 *16:5 1.4053000000000002
202 _147_:A _147_:A 0
203 *16:1 *16:2 0
204 *16:3 *16:4 0
*END

*D_NET *17 0.0009992656453400002
*CONN
*P rin[1] I
*I _130_:B1 I
*CAP
151 _130_:B1 4.017137184e-05
152 *17:1 0.00016728583584
153 *17:3 0.0007918084376600001
154 *17:2 0
*RES
205 _130_:B1 *17:1 0.30357142857142855
206 *17:1 *17:2 1.6428571428571428
207 *17:3 *17:4 8.95535714285714
208 _130_:B1 _130_:B1 0
209 *17:2 *17:3 0
*END

*D_NET *18 0.007402038898220001
*CONN
*P rout[0] O
*I _146_:B I
*I _145_:X O
*CAP
155 *18:1 0.00076532586418
156 _145_:X 0.00336379089056
157 *18:4 8.932229792e-05
158 *18:6 0.0007256020039600001
159 *18:8 0.0001625540907
160 *18:10 0.0008991392231600001
161 *18:12 0.0001625540907
162 *18:14 5.029638022e-05
163 *18:16 0.0002062676048
164 *18:17 0.00097718645202
165 *18:3 0
166 *18:19 0
167 *18:5 0
168 *18:9 0
169 *18:15 0
170 _146_:B 0
*RES
210 *18:1 *18:2 8.651785714285714
211 _145_:X *18:3 35.32142857142857
212 *18:4 *18:5 0.8214285714285714
213 *18:6 *18:7 8.196428571428571
214 *18:8 *18:9 0.25223333333333336
215 *18:10 *18:11 1.8110666666666668
216 *18:12 *18:13 0.25223333333333336
217 *18:14 *18:15 0.45535714285714285
218 *18:16 _146_:B 2.0535714285714284
219 *18:17 *18:18 11.080357142857142
220 _145_:X _145_:X 0
221 *18:3 *18:7 0
222 *18:19 *18:1 0
223 *18:4 *18:6 0
224 *18:5 *18:18 0
225 *18:17 *18:8 0
226 *18:9 *18:11 0
227 *18:12 *18:10 0
228 *18:15 *18:13 0
229 *18:16 *18:14 0
230 _146_:B _146_:B 0
*END

*D_NET *19 0.0032897695407
*CONN
*P rout[1] O
*I _130_:A2 I
*I _129_:X O
*CAP
171 *19:1 0.0005181217564799999
172 *19:3 0.00076532586418
173 *19:5 3.0849644479999996e-05
174 _129_:X 0.00172655659424
175 *19:7 0.00024891568132000004
176 *19:2 0
177 _130_:A2 0
178 *19:6 0
*RES
231 *19:1 *19:2 5.339285714285714
232 *19:3 *19:4 8.651785714285714
233 *19:5 _130_:A2 0.20535714285714285
234 _129_:X *19:6 18.07142857142857
235 *19:7 *19:8 2.7321428571428568
236 *19:1 *19:8 0
237 *19:2 *19:3 0
238 _130_:A2 _130_:A2 0
239 *19:5 *19:9 0
240 _129_:X _129_:X 0
241 *19:6 *19:7 0
*END

*D_NET *20 0.00105104118942
*CONN
*P uempty I
*I _102_:A I
*CAP
179 _102_:A 0.0002062676048
180 *20:2 0.0008447735846200001
181 *20:1 0
*RES
242 _102_:A *20:1 2.0535714285714284
243 *20:2 *20:3 9.5625
244 _102_:A _102_:A 0
245 *20:1 *20:2 0
*END

*D_NET *21 0.0030349386479
*CONN
*P uin[0] I
*I _103_:A I
*CAP
182 *21:1 0.00048725884264
183 *21:3 0.0024193757383800005
184 _103_:A 0.00012830406688
185 *21:4 0
*RES
246 *21:1 *21:2 5.4642857142857135
247 *21:3 *21:2 1.232142857142857
248 _103_:A *21:4 1.232142857142857
249 *21:3 *21:5 26.25892857142857
250 *21:4 *21:5 0
251 _103_:A _103_:A 0
*END

*D_NET *22 0.004106151669060001
*CONN
*P uin[1] I
*I _157_:B I
*CAP
186 *22:1 0.00082997590816
187 *22:3 0.0006726368570000002
188 *22:5 4.640188412000001e-05
189 *22:6 0.0008050497244000001
190 _157_:B 0.00024524937376
191 *22:8 0.0015068379216200002
192 *22:2 0
193 *22:7 0
*RES
252 *22:1 *22:2 8.625
253 *22:3 *22:4 7.5892857142857135
254 *22:5 *22:3 0.4107142857142857
255 *22:6 *22:5 9.107142857142856
256 _157_:B *22:7 2.464285714285714
257 *22:8 *22:9 17.15178571428571
258 *22:2 *22:8 0
259 *22:1 *22:4 0
260 *22:7 *22:6 0
261 _157_:B _157_:B 0
*END

*D_NET *23 0.0045308633609
*CONN
*P uout[0] O
*I _158_:C I
*I _116_:A I
*I _112_:Y O
*CAP
194 *23:1 5.034052896000001e-05
195 *23:2 0.00012974410066
196 *23:3 8.223124824000001e-05
197 *23:4 0.0006858781437400002
198 *23:6 0.00032321291168
199 _116_:A 4.017137184e-05
200 *23:7 0.0007909941392
201 *23:9 0.00044753498242
202 *23:11 9.669826434000002e-05
203 *23:12 0.00012830406688
204 *23:14 0.00043429369568000003
205 *23:15 0.0013214599072599999
206 _112_:Y 0
207 _158_:C 0
208 *23:8 0
209 *23:13 0
*RES
262 *23:1 _112_:Y 0.4107142857142857
263 *23:2 *23:3 1.3660714285714284
264 *23:3 *23:4 0.8214285714285714
265 *23:4 *23:5 7.741071428571428
266 *23:6 _158_:C 3.2857142857142856
267 _116_:A *23:7 0.30357142857142855
268 *23:7 *23:8 8.214285714285714
269 *23:9 *23:10 5.008928571428571
270 *23:11 *23:10 0.4107142857142857
271 *23:11 *23:2 0.45535714285714285
272 *23:12 *23:13 1.232142857142857
273 *23:14 *23:9 4.857142857142857
274 *23:15 *23:16 15.026785714285712
275 _112_:Y _112_:Y 0
276 *23:1 *23:2 0
277 *23:6 *23:5 0
278 _158_:C _158_:C 0
279 _116_:A _116_:A 0
280 *23:8 *23:9 0
281 *23:12 *23:16 0
282 *23:13 *23:14 0
*END

*D_NET *24 0.00517058285598
*CONN
*P uout[1] O
*I _158_:B I
*I _101_:C I
*I _100_:X O
*CAP
210 *24:1 0.00075320197312
211 _101_:C 0.0002062676048
212 *24:4 0.0002753982548
213 *24:6 0.0008050497244000001
214 *24:8 0.00016728583584
215 *24:9 0.00296337946302
216 _158_:B 0
217 *24:2 0
218 *24:3 0
219 *24:11 0
220 _100_:X 0
*RES
283 *24:1 _158_:B 0.30357142857142855
284 *24:1 *24:2 7.3928571428571415
285 _101_:C *24:3 2.0535714285714284
286 *24:4 *24:5 3.035714285714285
287 *24:6 *24:7 9.107142857142856
288 *24:8 _101_:C 1.6428571428571428
289 *24:9 *24:10 33.84821428571428
290 _158_:B _158_:B 0
291 *24:2 *24:10 0
292 _101_:C _101_:C 0
293 *24:3 *24:5 0
294 *24:11 *24:4 0
295 _100_:X _100_:X 0
296 _100_:X *24:7 0
297 *24:8 *24:6 0
*END

*D_NET *25 0.00427420986078
*CONN
*P vempty O
*I _093_:B I
*I _092_:X O
*CAP
221 *25:1 0.00011806061236
222 *25:2 0.0013347011940000003
223 _092_:X 0.0002062676048
224 *25:5 0.00014298538739999998
225 *25:7 0.00067404883232
226 *25:9 0.0017981462299
227 _093_:B 0
228 *25:4 0
229 *25:8 0
*RES
298 *25:1 *25:2 1.232142857142857
299 *25:2 *25:3 15.178571428571427
300 _092_:X *25:4 2.0535714285714284
301 *25:5 *25:6 1.5178571428571426
302 *25:7 *25:8 6.982142857142857
303 *25:9 *25:1 20.491071428571427
304 _093_:B _093_:B 0
305 _093_:B *25:9 0
306 _092_:X _092_:X 0
307 *25:4 *25:6 0
308 *25:7 *25:5 0
309 *25:8 *25:10 0
*END

*D_NET *26 0.00231186547352
*CONN
*I _132_:B I
*I _124_:X O
*CAP
230 *26:1 0.00020919182110000001
231 *26:3 0.0003202234515
232 *26:5 0.0002799860774
233 *26:7 0.0005567274927
234 *26:9 7.67789537e-05
235 _124_:X 0.00086895767712
236 _132_:B 0
237 *26:2 0
238 *26:8 0
239 *26:11 0
*RES
310 *26:1 *26:2 2.276785714285714
311 *26:3 *26:4 0.5405000000000001
312 *26:5 *26:6 0.5326666666666667
313 *26:7 *26:8 0.9729000000000001
314 *26:9 *26:10 0.7589285714285713
315 _124_:X *26:11 9.035714285714285
316 _132_:B _132_:B 0
317 _132_:B *26:1 0
318 *26:2 *26:4 0
319 *26:3 *26:5 0
320 *26:8 *26:6 0
321 *26:9 *26:7 0
322 *26:11 *26:10 0
323 _124_:X _124_:X 0
*END

*D_NET *27 0.00118419614808
*CONN
*I _127_:A I
*I _126_:X O
*CAP
240 *27:1 0.0010169103122400001
241 *27:3 0.00016728583584
242 _126_:X 0
243 _127_:A 0
*RES
324 *27:1 *27:2 11.535714285714285
325 *27:3 _127_:A 1.6428571428571428
326 _126_:X _126_:X 0
327 _126_:X *27:1 0
328 *27:3 *27:2 0
329 _127_:A _127_:A 0
*END

*D_NET *28 0.0037703227948400002
*CONN
*I _146_:A I
*I _130_:B2 I
*I _128_:A I
*I _127_:X O
*CAP
244 *28:1 0.00024524937376
245 _130_:B2 4.017137184e-05
246 *28:3 0.0007057974543800001
247 *28:6 0.0006064304233
248 *28:7 0.00032321291168
249 _146_:A 4.017137184e-05
250 *28:9 0.0003621946806399999
251 *28:4 0.0004078111222
252 *28:11 0.00012830406688
253 *28:12 0.0009109800183200002
254 _128_:A 0
255 _127_:X 0
*RES
330 *28:1 *28:2 2.464285714285714
331 _130_:B2 *28:2 0.30357142857142855
332 *28:3 *28:4 7.437499999999999
333 *28:3 *28:5 0.4107142857142857
334 *28:6 *28:5 6.830357142857142
335 *28:7 *28:8 3.2857142857142856
336 _146_:A *28:8 0.30357142857142855
337 *28:9 _127_:X 3.6964285714285707
338 *28:4 *28:10 4.553571428571428
339 *28:11 *28:9 1.232142857142857
340 *28:12 *28:13 10.321428571428571
341 *28:1 *28:13 0
342 _130_:B2 _130_:B2 0
343 _128_:A _128_:A 0
344 _128_:A *28:4 0
345 *28:7 *28:6 0
346 _146_:A _146_:A 0
347 _127_:X _127_:X 0
348 *28:9 *28:10 0
349 *28:11 *28:12 0
*END

*D_NET *29 0.0029204036546000003
*CONN
*I _147_:B I
*I _130_:A1 I
*I _128_:Y O
*CAP
256 *29:1 0.0014406314879200001
257 *29:3 8.932229792e-05
258 *29:2 8.223124824000001e-05
259 *29:4 0.00130821862052
260 _130_:A1 0
261 _128_:Y 0
262 _147_:B 0
*RES
350 *29:1 *29:2 16.392857142857142
351 *29:3 _147_:B 0.8214285714285714
352 *29:2 *29:4 0.8214285714285714
353 *29:4 *29:5 14.874999999999998
354 _130_:A1 _130_:A1 0
355 _130_:A1 *29:5 0
356 _128_:Y _128_:Y 0
357 _128_:Y *29:2 0
358 *29:3 *29:1 0
359 _147_:B _147_:B 0
*END

*D_NET *30 0.00321649695888
*CONN
*I _132_:C I
*I _131_:Y O
*CAP
263 *30:1 0.00032321291168
264 *30:2 0.00046077626916000004
265 *30:4 6.898398368e-05
266 *30:6 0.00110284829088
267 *30:7 0.0009374625918000002
268 _131_:Y 0.00032321291168
269 _132_:C 0
270 *30:9 0
*RES
360 *30:1 _132_:C 3.2857142857142856
361 *30:2 *30:3 5.160714285714286
362 *30:4 *30:5 0.6071428571428571
363 *30:6 *30:5 11.5
364 *30:7 *30:8 10.625
365 _131_:Y *30:9 3.2857142857142856
366 _132_:C _132_:C 0
367 *30:1 *30:2 0
368 *30:4 *30:3 0
369 *30:6 *30:7 0
370 *30:9 *30:8 0
371 _131_:Y _131_:Y 0
*END

*D_NET *31 0.0015908668348000002
*CONN
*I _177_:A I
*I _133_:B I
*I _132_:X O
*CAP
271 _177_:A 8.932229792e-05
272 *31:2 0.0012022883266000002
273 _132_:X 5.034052896000001e-05
274 *31:3 0.00024891568132000004
275 *31:1 0
276 _133_:B 0
*RES
372 _177_:A *31:1 0.8214285714285714
373 *31:2 *31:3 13.660714285714285
374 _132_:X _132_:X 0.4107142857142857
375 *31:3 *31:4 2.7321428571428568
376 _177_:A _177_:A 0
377 *31:1 *31:3 0
378 _133_:B _133_:B 0
379 _133_:B *31:2 0
380 _132_:X _132_:X 0
381 _132_:X *31:4 0
*END

*D_NET *32 0.00070008891284
*CONN
*I _134_:B I
*I _133_:Y O
*CAP
277 _133_:Y 0.00055710352544
278 *32:2 0.00014298538739999998
279 *32:1 0
280 _134_:B 0
*RES
382 _133_:Y *32:1 5.75
383 *32:2 *32:3 1.5178571428571426
384 _133_:Y _133_:Y 0
385 *32:1 *32:2 0
386 _134_:B _134_:B 0
387 _134_:B *32:3 0
*END

*D_NET *33 0.0044094209657600004
*CONN
*I _135_:B I
*I _134_:Y O
*CAP
281 *33:1 4.640188412000001e-05
282 *33:3 6.353766696000002e-05
283 *33:4 0.00010342808039999998
284 *33:6 0.0002576698464
285 *33:7 0.00057994784982
286 *33:9 8.932229792e-05
287 *33:10 0.001960447208
288 _135_:B 4.017137184e-05
289 *33:2 0.0012684947603
290 *33:8 0
291 _134_:Y 0
292 *33:11 0
*RES
388 *33:1 *33:2 0.4107142857142857
389 *33:3 *33:1 0.6071428571428571
390 *33:4 *33:5 0.14413333333333334
391 *33:6 *33:5 0.42613333333333336
392 *33:7 *33:8 6.5267857142857135
393 *33:9 _134_:Y 0.8214285714285714
394 *33:10 *33:11 20.535714285714285
395 _135_:B *33:10 0.30357142857142855
396 *33:2 *33:12 14.419642857142854
397 *33:3 *33:4 0
398 *33:8 *33:6 0
399 *33:9 *33:7 0
400 _134_:Y _134_:Y 0
401 *33:11 *33:12 0
402 _135_:B _135_:B 0
*END

*D_NET *34 0.0036630061684000004
*CONN
*I _137_:B I
*I _136_:Y O
*CAP
293 _137_:B 6.898398368e-05
294 *34:1 0.0010248847529600001
295 *34:3 7.021569086000002e-05
296 *34:6 0.0007123607172200001
297 *34:7 0.0005181217564799999
298 *34:8 0.00012660920736
299 *34:9 0.00114183005984
300 *34:2 0
301 _136_:Y 0
*RES
403 _137_:B *34:1 0.6071428571428571
404 *34:1 *34:2 10.678571428571429
405 *34:3 *34:4 0.15178571428571427
406 *34:3 *34:5 0.4107142857142857
407 *34:6 *34:5 8.044642857142856
408 *34:7 *34:8 5.339285714285714
409 *34:8 *34:9 1.2142857142857142
410 *34:9 _136_:Y 11.910714285714285
411 _137_:B _137_:B 0
412 *34:2 *34:4 0
413 *34:7 *34:6 0
414 _136_:Y _136_:Y 0
*END

*D_NET *35 0.002633928831720001
*CONN
*I _167_:A I
*I _165_:A I
*I _139_:B I
*I _138_:Y O
*CAP
302 *35:1 0.0006991194304800001
303 *35:3 3.0849644479999996e-05
304 _138_:Y 8.932229792e-05
305 *35:5 0.0012287709000800002
306 *35:6 0.00024891568132000004
307 *35:7 4.017137184e-05
308 *35:8 4.017137184e-05
309 *35:9 0.00016728583584
310 *35:10 8.932229792e-05
311 _167_:A 0
312 *35:4 0
313 _139_:B 0
314 _165_:A 0
*RES
415 *35:1 *35:2 7.892857142857142
416 *35:3 _167_:A 0.20535714285714285
417 _138_:Y *35:4 0.8214285714285714
418 *35:5 *35:1 13.964285714285714
419 *35:6 *35:5 2.7321428571428568
420 *35:7 _139_:B 0.30357142857142855
421 *35:8 _165_:A 0.30357142857142855
422 *35:9 *35:8 1.6428571428571428
423 *35:10 *35:7 0.8214285714285714
424 *35:10 *35:1 0
425 *35:3 *35:2 0
426 _167_:A _167_:A 0
427 _138_:Y _138_:Y 0
428 *35:4 *35:5 0
429 *35:9 *35:6 0
430 _139_:B _139_:B 0
431 _165_:A _165_:A 0
*END

*D_NET *36 0.004953062096560001
*CONN
*I _180_:D I
*I _169_:B I
*I _140_:B I
*I _139_:X O
*CAP
315 *36:1 0.00067404883232
316 *36:2 4.017137184e-05
317 *36:3 0.00083153229788
318 *36:5 0.00016728583584
319 _169_:B 4.017137184e-05
320 *36:7 0.00028423114272
321 *36:9 0.0014141489144400001
322 *36:11 0.00016728583584
323 _139_:X 0.00063506706336
324 *36:12 0.0006991194304800001
325 _180_:D 0
326 _140_:B 0
327 *36:8 0
*RES
432 *36:1 *36:2 6.982142857142857
433 *36:2 _180_:D 0.30357142857142855
434 *36:3 *36:4 9.410714285714285
435 *36:5 *36:6 1.6428571428571428
436 _169_:B *36:6 0.30357142857142855
437 *36:7 *36:8 2.875
438 *36:9 *36:10 16.08928571428571
439 *36:11 _140_:B 1.6428571428571428
440 _139_:X *36:7 6.571428571428571
441 *36:12 *36:13 7.892857142857142
442 *36:1 *36:13 0
443 _180_:D _180_:D 0
444 _140_:B _140_:B 0
445 _140_:B *36:4 0
446 *36:5 *36:3 0
447 _169_:B _169_:B 0
448 *36:7 *36:12 0
449 *36:8 *36:10 0
450 *36:11 *36:9 0
451 _139_:X _139_:X 0
*END

*D_NET *37 0.00072657148632
*CONN
*I _144_:A I
*I _140_:X O
*CAP
328 *37:1 0.00016946796088000002
329 *37:3 0.00055710352544
330 _140_:X 0
331 _144_:A 0
*RES
452 *37:1 *37:2 1.8214285714285714
453 *37:3 _144_:A 5.75
454 _140_:X _140_:X 0
455 _140_:X *37:1 0
456 *37:3 *37:2 0
457 _144_:A _144_:A 0
*END

*D_NET *38 0.0005846277884799999
*CONN
*I _143_:B I
*I _141_:X O
*CAP
332 *38:1 0.0003621946806399999
333 *38:2 0.00022243310784000002
334 _141_:X 0
335 _143_:B 0
*RES
458 *38:1 _141_:X 3.6964285714285707
459 *38:2 *38:3 2.4285714285714284
460 _141_:X _141_:X 0
461 *38:1 *38:2 0
462 _143_:B _143_:B 0
463 _143_:B *38:3 0
*END

*D_NET *39 0.0016805202884
*CONN
*I _143_:C I
*I _142_:X O
*CAP
336 *39:1 0.0002854207456
337 *39:3 0.00024891568132000004
338 *39:5 0.00055710352544
339 *39:7 0.00046077626916000004
340 *39:9 0.00012830406688
341 _143_:C 0
342 *39:2 0
343 *39:6 0
344 _142_:X 0
*RES
464 *39:1 _143_:C 0.30357142857142855
465 *39:1 *39:2 2.464285714285714
466 *39:3 *39:4 2.7321428571428568
467 *39:5 *39:6 5.75
468 *39:7 *39:8 5.160714285714286
469 *39:9 _142_:X 1.232142857142857
470 _143_:C _143_:C 0
471 *39:2 *39:3 0
472 *39:5 *39:4 0
473 *39:6 *39:7 0
474 *39:9 *39:8 0
475 _142_:X _142_:X 0
*END

*D_NET *40 0.00216836953732
*CONN
*I _144_:B I
*I _143_:X O
*CAP
345 *40:1 0.00088449744484
346 *40:3 0.00044134782144
347 *40:6 0.00079218374208
348 _143_:X 5.034052896000001e-05
349 _144_:B 0
350 *40:4 0
*RES
476 *40:1 *40:2 10.017857142857142
477 *40:3 *40:4 4.107142857142857
478 *40:3 *40:5 0.30357142857142855
479 *40:6 *40:5 7.803571428571428
480 *40:6 *40:7 0.30357142857142855
481 _143_:X *40:7 0.4107142857142857
482 _144_:B _144_:B 0
483 _144_:B *40:1 0
484 *40:4 *40:2 0
485 _143_:X _143_:X 0
*END

*D_NET *41 0.0052120368793599995
*CONN
*I _145_:A I
*I _144_:X O
*CAP
351 *41:1 2.3813806740000006e-05
352 *41:3 0.0026852638635
353 *41:5 2.3813806740000006e-05
354 *41:7 8.371941029999999e-05
355 *41:9 0.00239542599208
356 _145_:A 0
357 *41:4 0
358 _144_:X 0
359 *41:6 0
360 *41:8 0
*RES
486 *41:1 *41:2 0.15178571428571427
487 *41:3 *41:4 4.8645000000000005
488 *41:5 *41:6 0.15178571428571427
489 *41:7 *41:8 0.1081
490 *41:9 *41:10 4.900533333333334
491 *41:1 *41:3 0
492 _145_:A _145_:A 0
493 _145_:A *41:2 0
494 *41:4 *41:10 0
495 _144_:X _144_:X 0
496 _144_:X *41:5 0
497 *41:6 *41:7 0
498 *41:8 *41:9 0
*END

*D_NET *42 0.004454221324040001
*CONN
*I _166_:A I
*I _149_:A1 I
*I _146_:Y O
*CAP
361 *42:1 0.00063506706336
362 *42:2 0.00063291299678
363 *42:3 4.640188412000001e-05
364 *42:4 0.0011890470398600002
365 *42:6 4.017137184e-05
366 *42:8 0.00070405104704
367 _166_:A 0.00012830406688
368 *42:10 0.0009109800183200002
369 *42:12 0.00016728583584
370 _146_:Y 0
371 _149_:A1 0
372 *42:9 0
*RES
499 *42:1 _146_:Y 6.571428571428571
500 *42:2 *42:3 7.133928571428571
501 *42:3 *42:4 0.4107142857142857
502 *42:4 *42:5 13.508928571428571
503 *42:6 *42:7 0.30357142857142855
504 *42:8 *42:7 6.571428571428571
505 *42:8 _149_:A1 0.6071428571428571
506 _166_:A *42:9 1.232142857142857
507 *42:10 *42:11 10.321428571428571
508 *42:12 *42:1 1.6428571428571428
509 _146_:Y _146_:Y 0
510 *42:1 *42:2 0
511 *42:6 *42:5 0
512 _149_:A1 _149_:A1 0
513 _166_:A _166_:A 0
514 *42:9 *42:10 0
515 *42:12 *42:11 0
*END

*D_NET *43 0.00432031503424
*CONN
*I _166_:B I
*I _149_:A2 I
*I _147_:Y O
*CAP
373 _166_:B 4.017137184e-05
374 *43:1 0.00032321291168
375 *43:3 0.00276476016192
376 _149_:A2 0.0004791399875199999
377 *43:6 0.00071303060128
378 *43:2 0
379 *43:5 0
380 _147_:Y 0
*RES
516 _166_:B *43:1 0.30357142857142855
517 *43:1 *43:2 3.2857142857142856
518 *43:3 *43:4 31.57142857142857
519 _149_:A2 *43:5 4.928571428571428
520 *43:6 _147_:Y 7.3928571428571415
521 _166_:B _166_:B 0
522 *43:2 *43:3 0
523 *43:5 *43:4 0
524 _149_:A2 _149_:A2 0
525 _147_:Y _147_:Y 0
526 *43:6 *43:7 0
*END

*D_NET *44 0.00312634139648
*CONN
*I _149_:C1 I
*I _148_:Y O
*CAP
381 _148_:Y 0.00044015821855999997
382 *44:2 0.0002062676048
383 *44:4 0.00059318913656
384 *44:6 0.00012830406688
385 *44:7 0.00175842236968
386 *44:1 0
387 *44:3 0
388 _149_:C1 0
*RES
527 _148_:Y *44:1 4.517857142857142
528 *44:2 *44:3 2.0535714285714284
529 *44:4 *44:5 6.678571428571428
530 *44:6 _149_:C1 1.232142857142857
531 *44:7 *44:8 20.035714285714285
532 _148_:Y _148_:Y 0
533 *44:1 *44:7 0
534 *44:2 *44:8 0
535 *44:3 *44:4 0
536 *44:6 *44:5 0
537 _149_:C1 _149_:C1 0
*END

*D_NET *45 0.0030444400111600003
*CONN
*I _177_:C I
*I _150_:B I
*I _149_:X O
*CAP
389 *45:1 0.0012287709000800002
390 _149_:X 0.00024524937376
391 _150_:B 5.034052896000001e-05
392 *45:5 0.00152007920836
393 _177_:C 0
394 *45:3 0
395 *45:4 0
*RES
538 *45:1 *45:2 13.964285714285714
539 _149_:X *45:3 2.464285714285714
540 _150_:B *45:4 0.4107142857142857
541 *45:5 *45:1 17.303571428571427
542 _177_:C _177_:C 0
543 _177_:C *45:1 0
544 *45:3 *45:2 0
545 _149_:X _149_:X 0
546 _150_:B _150_:B 0
547 *45:4 *45:5 0
*END

*D_NET *46 0.00210781068384
*CONN
*I _151_:B I
*I _150_:Y O
*CAP
396 *46:1 0.00124979581248
397 *46:3 0.0008580148713600001
398 _151_:B 0
399 *46:2 0
400 _150_:Y 0
*RES