* NGSPICE file created from user_proj_example.ext - technology: sky130A

* Black-box entry subcircuit for sky130_fd_sc_hd__decap_12 abstract view
.subckt sky130_fd_sc_hd__decap_12 VGND VNB VPB VPWR
.ends

* Black-box entry subcircuit for sky130_fd_sc_hd__decap_8 abstract view
.subckt sky130_fd_sc_hd__decap_8 VGND VNB VPB VPWR
.ends

* Black-box entry subcircuit for sky130_fd_sc_hd__fill_2 abstract view
.subckt sky130_fd_sc_hd__fill_2 VGND VNB VPB VPWR
.ends

* Black-box entry subcircuit for sky130_fd_sc_hd__tapvpwrvgnd_1 abstract view
.subckt sky130_fd_sc_hd__tapvpwrvgnd_1 VGND VPWR
.ends

* Black-box entry subcircuit for sky130_fd_sc_hd__decap_3 abstract view
.subckt sky130_fd_sc_hd__decap_3 VGND VNB VPB VPWR
.ends

* Black-box entry subcircuit for sky130_fd_sc_hd__conb_1 abstract view
.subckt sky130_fd_sc_hd__conb_1 VGND VNB VPB VPWR HI LO
.ends

* Black-box entry subcircuit for sky130_fd_sc_hd__inv_2 abstract view
.subckt sky130_fd_sc_hd__inv_2 A VGND VNB VPB VPWR Y
.ends

* Black-box entry subcircuit for ycell abstract view
.subckt ycell cbitin cbitout confclk confclko dempty din[0] din[1] dout[0] dout[1]
+ hempty hempty2 lempty lin[0] lin[1] lout[0] lout[1] rempty reset reseto rin[0] rin[1]
+ rout[0] rout[1] uempty uin[0] uin[1] uout[0] uout[1] vempty vempty2 VPWR VGND
.ends

* Black-box entry subcircuit for sky130_fd_sc_hd__decap_6 abstract view
.subckt sky130_fd_sc_hd__decap_6 VGND VNB VPB VPWR
.ends

* Black-box entry subcircuit for sky130_fd_sc_hd__decap_4 abstract view
.subckt sky130_fd_sc_hd__decap_4 VGND VNB VPB VPWR
.ends

* Black-box entry subcircuit for sky130_fd_sc_hd__fill_1 abstract view
.subckt sky130_fd_sc_hd__fill_1 VGND VNB VPB VPWR
.ends

* Black-box entry subcircuit for sky130_fd_sc_hd__o22a_4 abstract view
.subckt sky130_fd_sc_hd__o22a_4 A1 A2 B1 B2 VGND VNB VPB VPWR X
.ends

* Black-box entry subcircuit for sky130_fd_sc_hd__a2bb2o_4 abstract view
.subckt sky130_fd_sc_hd__a2bb2o_4 A1_N A2_N B1 B2 VGND VNB VPB VPWR X
.ends

* Black-box entry subcircuit for sky130_fd_sc_hd__dfxtp_4 abstract view
.subckt sky130_fd_sc_hd__dfxtp_4 CLK D VGND VNB VPB VPWR Q
.ends

* Black-box entry subcircuit for sky130_fd_sc_hd__buf_2 abstract view
.subckt sky130_fd_sc_hd__buf_2 A VGND VNB VPB VPWR X
.ends

* Black-box entry subcircuit for sky130_fd_sc_hd__and3_4 abstract view
.subckt sky130_fd_sc_hd__and3_4 A B C VGND VNB VPB VPWR X
.ends

* Black-box entry subcircuit for sky130_fd_sc_hd__and4_4 abstract view
.subckt sky130_fd_sc_hd__and4_4 A B C D VGND VNB VPB VPWR X
.ends

* Black-box entry subcircuit for sky130_fd_sc_hd__diode_2 abstract view
.subckt sky130_fd_sc_hd__diode_2 DIODE VGND VNB VPB VPWR
.ends

.subckt user_proj_example io_in[0] io_in[10] io_in[11] io_in[12] io_in[13] io_in[14]
+ io_in[15] io_in[16] io_in[17] io_in[18] io_in[19] io_in[1] io_in[20] io_in[21] io_in[22]
+ io_in[23] io_in[24] io_in[25] io_in[26] io_in[27] io_in[28] io_in[29] io_in[2] io_in[30]
+ io_in[31] io_in[32] io_in[33] io_in[34] io_in[35] io_in[36] io_in[37] io_in[3] io_in[4]
+ io_in[5] io_in[6] io_in[7] io_in[8] io_in[9] io_oeb[0] io_oeb[10] io_oeb[11] io_oeb[12]
+ io_oeb[13] io_oeb[14] io_oeb[15] io_oeb[16] io_oeb[17] io_oeb[18] io_oeb[19] io_oeb[1]
+ io_oeb[20] io_oeb[21] io_oeb[22] io_oeb[23] io_oeb[24] io_oeb[25] io_oeb[26] io_oeb[27]
+ io_oeb[28] io_oeb[29] io_oeb[2] io_oeb[30] io_oeb[31] io_oeb[32] io_oeb[33] io_oeb[34]
+ io_oeb[35] io_oeb[36] io_oeb[37] io_oeb[3] io_oeb[4] io_oeb[5] io_oeb[6] io_oeb[7]
+ io_oeb[8] io_oeb[9] io_out[0] io_out[10] io_out[11] io_out[12] io_out[13] io_out[14]
+ io_out[15] io_out[16] io_out[17] io_out[18] io_out[19] io_out[1] io_out[20] io_out[21]
+ io_out[22] io_out[23] io_out[24] io_out[25] io_out[26] io_out[27] io_out[28] io_out[29]
+ io_out[2] io_out[30] io_out[31] io_out[32] io_out[33] io_out[34] io_out[35] io_out[36]
+ io_out[37] io_out[3] io_out[4] io_out[5] io_out[6] io_out[7] io_out[8] io_out[9]
+ la_data_in[0] la_data_in[100] la_data_in[101] la_data_in[102] la_data_in[103] la_data_in[104]
+ la_data_in[105] la_data_in[106] la_data_in[107] la_data_in[108] la_data_in[109]
+ la_data_in[10] la_data_in[110] la_data_in[111] la_data_in[112] la_data_in[113] la_data_in[114]
+ la_data_in[115] la_data_in[116] la_data_in[117] la_data_in[118] la_data_in[119]
+ la_data_in[11] la_data_in[120] la_data_in[121] la_data_in[122] la_data_in[123] la_data_in[124]
+ la_data_in[125] la_data_in[126] la_data_in[127] la_data_in[12] la_data_in[13] la_data_in[14]
+ la_data_in[15] la_data_in[16] la_data_in[17] la_data_in[18] la_data_in[19] la_data_in[1]
+ la_data_in[20] la_data_in[21] la_data_in[22] la_data_in[23] la_data_in[24] la_data_in[25]
+ la_data_in[26] la_data_in[27] la_data_in[28] la_data_in[29] la_data_in[2] la_data_in[30]
+ la_data_in[31] la_data_in[32] la_data_in[33] la_data_in[34] la_data_in[35] la_data_in[36]
+ la_data_in[37] la_data_in[38] la_data_in[39] la_data_in[3] la_data_in[40] la_data_in[41]
+ la_data_in[42] la_data_in[43] la_data_in[44] la_data_in[45] la_data_in[46] la_data_in[47]
+ la_data_in[48] la_data_in[49] la_data_in[4] la_data_in[50] la_data_in[51] la_data_in[52]
+ la_data_in[53] la_data_in[54] la_data_in[55] la_data_in[56] la_data_in[57] la_data_in[58]
+ la_data_in[59] la_data_in[5] la_data_in[60] la_data_in[61] la_data_in[62] la_data_in[63]
+ la_data_in[64] la_data_in[65] la_data_in[66] la_data_in[67] la_data_in[68] la_data_in[69]
+ la_data_in[6] la_data_in[70] la_data_in[71] la_data_in[72] la_data_in[73] la_data_in[74]
+ la_data_in[75] la_data_in[76] la_data_in[77] la_data_in[78] la_data_in[79] la_data_in[7]
+ la_data_in[80] la_data_in[81] la_data_in[82] la_data_in[83] la_data_in[84] la_data_in[85]
+ la_data_in[86] la_data_in[87] la_data_in[88] la_data_in[89] la_data_in[8] la_data_in[90]
+ la_data_in[91] la_data_in[92] la_data_in[93] la_data_in[94] la_data_in[95] la_data_in[96]
+ la_data_in[97] la_data_in[98] la_data_in[99] la_data_in[9] la_data_out[0] la_data_out[100]
+ la_data_out[101] la_data_out[102] la_data_out[103] la_data_out[104] la_data_out[105]
+ la_data_out[106] la_data_out[107] la_data_out[108] la_data_out[109] la_data_out[10]
+ la_data_out[110] la_data_out[111] la_data_out[112] la_data_out[113] la_data_out[114]
+ la_data_out[115] la_data_out[116] la_data_out[117] la_data_out[118] la_data_out[119]
+ la_data_out[11] la_data_out[120] la_data_out[121] la_data_out[122] la_data_out[123]
+ la_data_out[124] la_data_out[125] la_data_out[126] la_data_out[127] la_data_out[12]
+ la_data_out[13] la_data_out[14] la_data_out[15] la_data_out[16] la_data_out[17]
+ la_data_out[18] la_data_out[19] la_data_out[1] la_data_out[20] la_data_out[21] la_data_out[22]
+ la_data_out[23] la_data_out[24] la_data_out[25] la_data_out[26] la_data_out[27]
+ la_data_out[28] la_data_out[29] la_data_out[2] la_data_out[30] la_data_out[31] la_data_out[32]
+ la_data_out[33] la_data_out[34] la_data_out[35] la_data_out[36] la_data_out[37]
+ la_data_out[38] la_data_out[39] la_data_out[3] la_data_out[40] la_data_out[41] la_data_out[42]
+ la_data_out[43] la_data_out[44] la_data_out[45] la_data_out[46] la_data_out[47]
+ la_data_out[48] la_data_out[49] la_data_out[4] la_data_out[50] la_data_out[51] la_data_out[52]
+ la_data_out[53] la_data_out[54] la_data_out[55] la_data_out[56] la_data_out[57]
+ la_data_out[58] la_data_out[59] la_data_out[5] la_data_out[60] la_data_out[61] la_data_out[62]
+ la_data_out[63] la_data_out[64] la_data_out[65] la_data_out[66] la_data_out[67]
+ la_data_out[68] la_data_out[69] la_data_out[6] la_data_out[70] la_data_out[71] la_data_out[72]
+ la_data_out[73] la_data_out[74] la_data_out[75] la_data_out[76] la_data_out[77]
+ la_data_out[78] la_data_out[79] la_data_out[7] la_data_out[80] la_data_out[81] la_data_out[82]
+ la_data_out[83] la_data_out[84] la_data_out[85] la_data_out[86] la_data_out[87]
+ la_data_out[88] la_data_out[89] la_data_out[8] la_data_out[90] la_data_out[91] la_data_out[92]
+ la_data_out[93] la_data_out[94] la_data_out[95] la_data_out[96] la_data_out[97]
+ la_data_out[98] la_data_out[99] la_data_out[9] la_oen[0] la_oen[100] la_oen[101]
+ la_oen[102] la_oen[103] la_oen[104] la_oen[105] la_oen[106] la_oen[107] la_oen[108]
+ la_oen[109] la_oen[10] la_oen[110] la_oen[111] la_oen[112] la_oen[113] la_oen[114]
+ la_oen[115] la_oen[116] la_oen[117] la_oen[118] la_oen[119] la_oen[11] la_oen[120]
+ la_oen[121] la_oen[122] la_oen[123] la_oen[124] la_oen[125] la_oen[126] la_oen[127]
+ la_oen[12] la_oen[13] la_oen[14] la_oen[15] la_oen[16] la_oen[17] la_oen[18] la_oen[19]
+ la_oen[1] la_oen[20] la_oen[21] la_oen[22] la_oen[23] la_oen[24] la_oen[25] la_oen[26]
+ la_oen[27] la_oen[28] la_oen[29] la_oen[2] la_oen[30] la_oen[31] la_oen[32] la_oen[33]
+ la_oen[34] la_oen[35] la_oen[36] la_oen[37] la_oen[38] la_oen[39] la_oen[3] la_oen[40]
+ la_oen[41] la_oen[42] la_oen[43] la_oen[44] la_oen[45] la_oen[46] la_oen[47] la_oen[48]
+ la_oen[49] la_oen[4] la_oen[50] la_oen[51] la_oen[52] la_oen[53] la_oen[54] la_oen[55]
+ la_oen[56] la_oen[57] la_oen[58] la_oen[59] la_oen[5] la_oen[60] la_oen[61] la_oen[62]
+ la_oen[63] la_oen[64] la_oen[65] la_oen[66] la_oen[67] la_oen[68] la_oen[69] la_oen[6]
+ la_oen[70] la_oen[71] la_oen[72] la_oen[73] la_oen[74] la_oen[75] la_oen[76] la_oen[77]
+ la_oen[78] la_oen[79] la_oen[7] la_oen[80] la_oen[81] la_oen[82] la_oen[83] la_oen[84]
+ la_oen[85] la_oen[86] la_oen[87] la_oen[88] la_oen[89] la_oen[8] la_oen[90] la_oen[91]
+ la_oen[92] la_oen[93] la_oen[94] la_oen[95] la_oen[96] la_oen[97] la_oen[98] la_oen[99]
+ la_oen[9] vccd1 vccd2 vdda1 vdda2 vssa1 vssa2 vssd1 vssd2 wb_clk_i wb_rst_i wbs_ack_o
+ wbs_adr_i[0] wbs_adr_i[10] wbs_adr_i[11] wbs_adr_i[12] wbs_adr_i[13] wbs_adr_i[14]
+ wbs_adr_i[15] wbs_adr_i[16] wbs_adr_i[17] wbs_adr_i[18] wbs_adr_i[19] wbs_adr_i[1]
+ wbs_adr_i[20] wbs_adr_i[21] wbs_adr_i[22] wbs_adr_i[23] wbs_adr_i[24] wbs_adr_i[25]
+ wbs_adr_i[26] wbs_adr_i[27] wbs_adr_i[28] wbs_adr_i[29] wbs_adr_i[2] wbs_adr_i[30]
+ wbs_adr_i[31] wbs_adr_i[3] wbs_adr_i[4] wbs_adr_i[5] wbs_adr_i[6] wbs_adr_i[7] wbs_adr_i[8]
+ wbs_adr_i[9] wbs_cyc_i wbs_dat_i[0] wbs_dat_i[10] wbs_dat_i[11] wbs_dat_i[12] wbs_dat_i[13]
+ wbs_dat_i[14] wbs_dat_i[15] wbs_dat_i[16] wbs_dat_i[17] wbs_dat_i[18] wbs_dat_i[19]
+ wbs_dat_i[1] wbs_dat_i[20] wbs_dat_i[21] wbs_dat_i[22] wbs_dat_i[23] wbs_dat_i[24]
+ wbs_dat_i[25] wbs_dat_i[26] wbs_dat_i[27] wbs_dat_i[28] wbs_dat_i[29] wbs_dat_i[2]
+ wbs_dat_i[30] wbs_dat_i[31] wbs_dat_i[3] wbs_dat_i[4] wbs_dat_i[5] wbs_dat_i[6]
+ wbs_dat_i[7] wbs_dat_i[8] wbs_dat_i[9] wbs_dat_o[0] wbs_dat_o[10] wbs_dat_o[11]
+ wbs_dat_o[12] wbs_dat_o[13] wbs_dat_o[14] wbs_dat_o[15] wbs_dat_o[16] wbs_dat_o[17]
+ wbs_dat_o[18] wbs_dat_o[19] wbs_dat_o[1] wbs_dat_o[20] wbs_dat_o[21] wbs_dat_o[22]
+ wbs_dat_o[23] wbs_dat_o[24] wbs_dat_o[25] wbs_dat_o[26] wbs_dat_o[27] wbs_dat_o[28]
+ wbs_dat_o[29] wbs_dat_o[2] wbs_dat_o[30] wbs_dat_o[31] wbs_dat_o[3] wbs_dat_o[4]
+ wbs_dat_o[5] wbs_dat_o[6] wbs_dat_o[7] wbs_dat_o[8] wbs_dat_o[9] wbs_sel_i[0] wbs_sel_i[1]
+ wbs_sel_i[2] wbs_sel_i[3] wbs_stb_i wbs_we_i VPWR VGND
XFILLER_42_2963 VGND VGND VPWR VPWR sky130_fd_sc_hd__decap_12
XFILLER_364_3024 VGND VGND VPWR VPWR sky130_fd_sc_hd__decap_12
XFILLER_485_2672 VGND VGND VPWR VPWR sky130_fd_sc_hd__decap_12
XFILLER_481_2514 VGND VGND VPWR VPWR sky130_fd_sc_hd__decap_12
XFILLER_97_3164 VGND VGND VPWR VPWR sky130_fd_sc_hd__decap_12
XFILLER_509_2355 VGND VGND VPWR VPWR sky130_fd_sc_hd__decap_12
XFILLER_490_337 VGND VGND VPWR VPWR sky130_fd_sc_hd__decap_12
XFILLER_443_220 VGND VGND VPWR VPWR sky130_fd_sc_hd__decap_12
XFILLER_383_2946 VGND VGND VPWR VPWR sky130_fd_sc_hd__decap_12
XFILLER_329_3188 VGND VGND VPWR VPWR sky130_fd_sc_hd__decap_12
XFILLER_94_361 VGND VGND VPWR VPWR sky130_fd_sc_hd__decap_8
XFILLER_93_3017 VGND VGND VPWR VPWR sky130_fd_sc_hd__decap_12
XFILLER_184_3134 VGND VGND VPWR VPWR sky130_fd_sc_hd__decap_12
XFILLER_3_1733 VGND VGND VPWR VPWR sky130_fd_sc_hd__decap_12
XFILLER_424_2910 VGND VGND VPWR VPWR sky130_fd_sc_hd__decap_12
XFILLER_370_93 VGND VGND VPWR VPWR sky130_fd_sc_hd__decap_12
XFILLER_23_1672 VGND VGND VPWR VPWR sky130_fd_sc_hd__decap_12
XFILLER_3_2489 VGND VGND VPWR VPWR sky130_fd_sc_hd__decap_12
XFILLER_227_367 VGND VGND VPWR VPWR sky130_fd_sc_hd__fill_2
XFILLER_223_98 VGND VGND VPWR VPWR sky130_fd_sc_hd__decap_12
XFILLER_260_3000 VGND VGND VPWR VPWR sky130_fd_sc_hd__decap_12
XFILLER_526_2691 VGND VGND VPWR VPWR sky130_fd_sc_hd__decap_12
XFILLER_463_2981 VGND VGND VPWR VPWR sky130_fd_sc_hd__decap_12
XFILLER_405_3054 VGND VGND VPWR VPWR sky130_fd_sc_hd__decap_12
XFILLER_199_208 VGND VGND VPWR VPWR sky130_fd_sc_hd__decap_12
XFILLER_522_2533 VGND VGND VPWR VPWR sky130_fd_sc_hd__decap_12
XPHY_3109 VGND VPWR sky130_fd_sc_hd__tapvpwrvgnd_1
XFILLER_242_337 VGND VGND VPWR VPWR sky130_fd_sc_hd__decap_12
XFILLER_481_1879 VGND VGND VPWR VPWR sky130_fd_sc_hd__decap_12
XFILLER_225_3164 VGND VGND VPWR VPWR sky130_fd_sc_hd__decap_12
XFILLER_424_2987 VGND VGND VPWR VPWR sky130_fd_sc_hd__decap_12
XFILLER_221_3017 VGND VGND VPWR VPWR sky130_fd_sc_hd__decap_12
XFILLER_17_2111 VGND VGND VPWR VPWR sky130_fd_sc_hd__decap_12
XFILLER_23_623 VGND VGND VPWR VPWR sky130_fd_sc_hd__decap_12
XPHY_2408 VGND VPWR sky130_fd_sc_hd__tapvpwrvgnd_1
XPHY_2419 VGND VPWR sky130_fd_sc_hd__tapvpwrvgnd_1
XFILLER_479_3188 VGND VGND VPWR VPWR sky130_fd_sc_hd__decap_12
XFILLER_449_39 VGND VGND VPWR VPWR sky130_fd_sc_hd__decap_12
XFILLER_301_3030 VGND VGND VPWR VPWR sky130_fd_sc_hd__decap_12
XFILLER_240_2939 VGND VGND VPWR VPWR sky130_fd_sc_hd__decap_12
XPHY_1707 VGND VGND VPWR VPWR sky130_fd_sc_hd__decap_3
XFILLER_522_1898 VGND VGND VPWR VPWR sky130_fd_sc_hd__decap_12
XFILLER_34_3170 VGND VGND VPWR VPWR sky130_fd_sc_hd__decap_12
XFILLER_11_818 VGND VGND VPWR VPWR sky130_fd_sc_hd__decap_12
XFILLER_30_3012 VGND VGND VPWR VPWR sky130_fd_sc_hd__decap_12
XPHY_1718 VGND VGND VPWR VPWR sky130_fd_sc_hd__decap_3
XFILLER_22_166 VGND VGND VPWR VPWR sky130_fd_sc_hd__decap_12
XFILLER_69_3200 VGND VGND VPWR VPWR sky130_fd_sc_hd__decap_12
XPHY_1729 VGND VGND VPWR VPWR sky130_fd_sc_hd__decap_3
XFILLER_500_2886 VGND VGND VPWR VPWR sky130_fd_sc_hd__decap_12
XFILLER_356_227 VGND VGND VPWR VPWR sky130_fd_sc_hd__decap_12
XFILLER_539_891 VGND VGND VPWR VPWR sky130_fd_sc_hd__decap_12
XFILLER_320_2963 VGND VGND VPWR VPWR sky130_fd_sc_hd__decap_12
XFILLER_309_110 VGND VGND VPWR VPWR sky130_fd_sc_hd__decap_12
XFILLER_17_1465 VGND VGND VPWR VPWR sky130_fd_sc_hd__decap_12
XFILLER_535_2916 VGND VGND VPWR VPWR sky130_fd_sc_hd__decap_12
XFILLER_375_3164 VGND VGND VPWR VPWR sky130_fd_sc_hd__decap_12
XFILLER_538_1349 VGND VGND VPWR VPWR sky130_fd_sc_hd__decap_12
XFILLER_13_1318 VGND VGND VPWR VPWR sky130_fd_sc_hd__decap_12
XFILLER_371_3017 VGND VGND VPWR VPWR sky130_fd_sc_hd__decap_12
XFILLER_371_208 VGND VGND VPWR VPWR sky130_fd_sc_hd__decap_12
XFILLER_516_2337 VGND VGND VPWR VPWR sky130_fd_sc_hd__decap_12
XFILLER_514_703 VGND VGND VPWR VPWR sky130_fd_sc_hd__decap_12
XFILLER_465_27 VGND VGND VPWR VPWR sky130_fd_sc_hd__decap_12
XFILLER_499_916 VGND VGND VPWR VPWR sky130_fd_sc_hd__decap_12
XFILLER_451_3030 VGND VGND VPWR VPWR sky130_fd_sc_hd__decap_12
XFILLER_108_227 VGND VGND VPWR VPWR sky130_fd_sc_hd__decap_12
XFILLER_175_171 VGND VGND VPWR VPWR sky130_fd_sc_hd__decap_12
XFILLER_191_3127 VGND VGND VPWR VPWR sky130_fd_sc_hd__decap_12
XFILLER_390_2939 VGND VGND VPWR VPWR sky130_fd_sc_hd__decap_12
XFILLER_416_3183 VGND VGND VPWR VPWR sky130_fd_sc_hd__decap_12
XFILLER_190_141 VGND VGND VPWR VPWR sky130_fd_sc_hd__decap_12
XFILLER_513_257 VGND VGND VPWR VPWR sky130_fd_sc_hd__decap_12
XFILLER_470_2963 VGND VGND VPWR VPWR sky130_fd_sc_hd__decap_12
XFILLER_412_3036 VGND VGND VPWR VPWR sky130_fd_sc_hd__decap_12
XFILLER_123_208 VGND VGND VPWR VPWR sky130_fd_sc_hd__decap_12
XFILLER_498_459 VGND VGND VPWR VPWR sky130_fd_sc_hd__decap_12
XFILLER_2_516 VGND VGND VPWR VPWR sky130_fd_sc_hd__decap_3
XFILLER_11_1086 VGND VGND VPWR VPWR sky130_fd_sc_hd__decap_12
XPHY_11106 VGND VPWR sky130_fd_sc_hd__tapvpwrvgnd_1
XFILLER_232_3146 VGND VGND VPWR VPWR sky130_fd_sc_hd__decap_12
XFILLER_8_2301 VGND VGND VPWR VPWR sky130_fd_sc_hd__decap_12
XFILLER_119_3091 VGND VGND VPWR VPWR sky130_fd_sc_hd__decap_12
XFILLER_481_15 VGND VGND VPWR VPWR sky130_fd_sc_hd__decap_12
XFILLER_431_2958 VGND VGND VPWR VPWR sky130_fd_sc_hd__decap_8
XFILLER_8_3057 VGND VGND VPWR VPWR sky130_fd_sc_hd__decap_12
XPHY_11117 VGND VPWR sky130_fd_sc_hd__tapvpwrvgnd_1
XFILLER_431_2969 VGND VGND VPWR VPWR sky130_fd_sc_hd__decap_12
XPHY_11128 VGND VPWR sky130_fd_sc_hd__tapvpwrvgnd_1
XFILLER_77_15 VGND VGND VPWR VPWR sky130_fd_sc_hd__decap_12
XPHY_11139 VGND VPWR sky130_fd_sc_hd__tapvpwrvgnd_1
XFILLER_529_2709 VGND VGND VPWR VPWR sky130_fd_sc_hd__decap_12
XPHY_10405 VGND VPWR sky130_fd_sc_hd__tapvpwrvgnd_1
XFILLER_466_312 VGND VGND VPWR VPWR sky130_fd_sc_hd__decap_12
XFILLER_332_190 VGND VGND VPWR VPWR sky130_fd_sc_hd__decap_12
XFILLER_481_59 VGND VGND VPWR VPWR sky130_fd_sc_hd__fill_2
XPHY_10416 VGND VPWR sky130_fd_sc_hd__tapvpwrvgnd_1
XFILLER_312_3170 VGND VGND VPWR VPWR sky130_fd_sc_hd__decap_12
XFILLER_527_3112 VGND VGND VPWR VPWR sky130_fd_sc_hd__decap_12
XPHY_10427 VGND VPWR sky130_fd_sc_hd__tapvpwrvgnd_1
XFILLER_77_306 VGND VGND VPWR VPWR sky130_fd_sc_hd__decap_12
XFILLER_486_2447 VGND VGND VPWR VPWR sky130_fd_sc_hd__decap_12
XFILLER_494_654 VGND VGND VPWR VPWR sky130_fd_sc_hd__decap_12
XFILLER_277_245 VGND VGND VPWR VPWR sky130_fd_sc_hd__decap_12
XPHY_10438 VGND VPWR sky130_fd_sc_hd__tapvpwrvgnd_1
XFILLER_347_3200 VGND VGND VPWR VPWR sky130_fd_sc_hd__decap_12
XFILLER_41_3152 VGND VGND VPWR VPWR sky130_fd_sc_hd__decap_12
XFILLER_77_59 VGND VGND VPWR VPWR sky130_fd_sc_hd__fill_2
XPHY_10449 VGND VPWR sky130_fd_sc_hd__tapvpwrvgnd_1
XFILLER_189_3078 VGND VGND VPWR VPWR sky130_fd_sc_hd__decap_12
XFILLER_292_215 VGND VGND VPWR VPWR sky130_fd_sc_hd__decap_12
XFILLER_8_1666 VGND VGND VPWR VPWR sky130_fd_sc_hd__decap_12
XFILLER_482_849 VGND VGND VPWR VPWR sky130_fd_sc_hd__decap_12
XFILLER_4_1508 VGND VGND VPWR VPWR sky130_fd_sc_hd__decap_12
XFILLER_218_312 VGND VGND VPWR VPWR sky130_fd_sc_hd__decap_12
XFILLER_269_3091 VGND VGND VPWR VPWR sky130_fd_sc_hd__decap_12
XFILLER_382_3146 VGND VGND VPWR VPWR sky130_fd_sc_hd__decap_12
XFILLER_527_1721 VGND VGND VPWR VPWR sky130_fd_sc_hd__decap_12
XPHY_5001 VGND VPWR sky130_fd_sc_hd__tapvpwrvgnd_1
XPHY_5012 VGND VPWR sky130_fd_sc_hd__tapvpwrvgnd_1
XFILLER_527_2477 VGND VGND VPWR VPWR sky130_fd_sc_hd__decap_12
XPHY_5023 VGND VPWR sky130_fd_sc_hd__tapvpwrvgnd_1
XFILLER_523_2319 VGND VGND VPWR VPWR sky130_fd_sc_hd__decap_12
XFILLER_462_3170 VGND VGND VPWR VPWR sky130_fd_sc_hd__decap_12
XPHY_5034 VGND VPWR sky130_fd_sc_hd__tapvpwrvgnd_1
XPHY_5045 VGND VPWR sky130_fd_sc_hd__tapvpwrvgnd_1
XFILLER_280_93 VGND VGND VPWR VPWR sky130_fd_sc_hd__decap_12
XFILLER_133_98 VGND VGND VPWR VPWR sky130_fd_sc_hd__decap_12
XPHY_4300 VGND VPWR sky130_fd_sc_hd__tapvpwrvgnd_1
XFILLER_508_1142 VGND VGND VPWR VPWR sky130_fd_sc_hd__decap_12
XFILLER_480_2057 VGND VGND VPWR VPWR sky130_fd_sc_hd__decap_3
XFILLER_3_2990 VGND VGND VPWR VPWR sky130_fd_sc_hd__decap_12
XFILLER_172_3 VGND VGND VPWR VPWR sky130_fd_sc_hd__decap_12
XPHY_4311 VGND VPWR sky130_fd_sc_hd__tapvpwrvgnd_1
XPHY_5056 VGND VPWR sky130_fd_sc_hd__tapvpwrvgnd_1
X_501_ VGND VGND VPWR VPWR _501_/HI _501_/LO sky130_fd_sc_hd__conb_1
XFILLER_499_2819 VGND VGND VPWR VPWR sky130_fd_sc_hd__decap_12
XPHY_5067 VGND VPWR sky130_fd_sc_hd__tapvpwrvgnd_1
XPHY_4322 VGND VPWR sky130_fd_sc_hd__tapvpwrvgnd_1
XPHY_5078 VGND VPWR sky130_fd_sc_hd__tapvpwrvgnd_1
XPHY_4333 VGND VPWR sky130_fd_sc_hd__tapvpwrvgnd_1
XFILLER_423_3176 VGND VGND VPWR VPWR sky130_fd_sc_hd__decap_12
XPHY_5089 VGND VPWR sky130_fd_sc_hd__tapvpwrvgnd_1
XFILLER_45_269 VGND VGND VPWR VPWR sky130_fd_sc_hd__decap_12
XPHY_4344 VGND VPWR sky130_fd_sc_hd__tapvpwrvgnd_1
XFILLER_540_2655 VGND VGND VPWR VPWR sky130_fd_sc_hd__decap_12
XFILLER_540_1910 VGND VGND VPWR VPWR sky130_fd_sc_hd__decap_12
XFILLER_2_1276 VGND VGND VPWR VPWR sky130_fd_sc_hd__decap_12
XPHY_3610 VGND VPWR sky130_fd_sc_hd__tapvpwrvgnd_1
XPHY_4355 VGND VPWR sky130_fd_sc_hd__tapvpwrvgnd_1
XPHY_3621 VGND VPWR sky130_fd_sc_hd__tapvpwrvgnd_1
XPHY_4366 VGND VPWR sky130_fd_sc_hd__tapvpwrvgnd_1
X_432_ VGND VGND VPWR VPWR _432_/HI _432_/LO sky130_fd_sc_hd__conb_1
XPHY_3632 VGND VPWR sky130_fd_sc_hd__tapvpwrvgnd_1
XPHY_4377 VGND VPWR sky130_fd_sc_hd__tapvpwrvgnd_1
XFILLER_387_330 VGND VGND VPWR VPWR sky130_fd_sc_hd__decap_12
XFILLER_60_239 VGND VGND VPWR VPWR sky130_fd_sc_hd__decap_12
XPHY_3643 VGND VPWR sky130_fd_sc_hd__tapvpwrvgnd_1
XFILLER_126_3073 VGND VGND VPWR VPWR sky130_fd_sc_hd__decap_12
XPHY_4388 VGND VPWR sky130_fd_sc_hd__tapvpwrvgnd_1
XFILLER_260_178 VGND VGND VPWR VPWR sky130_fd_sc_hd__decap_12
XFILLER_19_2965 VGND VGND VPWR VPWR sky130_fd_sc_hd__decap_12
XPHY_3654 VGND VPWR sky130_fd_sc_hd__tapvpwrvgnd_1
XPHY_4399 VGND VPWR sky130_fd_sc_hd__tapvpwrvgnd_1
XFILLER_537_806 VGND VGND VPWR VPWR sky130_fd_sc_hd__decap_12
XFILLER_521_2087 VGND VGND VPWR VPWR sky130_fd_sc_hd__decap_12
XFILLER_501_1916 VGND VGND VPWR VPWR sky130_fd_sc_hd__decap_12
XFILLER_437_3 VGND VGND VPWR VPWR sky130_fd_sc_hd__decap_12
XFILLER_359_39 VGND VGND VPWR VPWR sky130_fd_sc_hd__decap_12
XPHY_2920 VGND VPWR sky130_fd_sc_hd__tapvpwrvgnd_1
XFILLER_15_2807 VGND VGND VPWR VPWR sky130_fd_sc_hd__decap_12
XPHY_3665 VGND VPWR sky130_fd_sc_hd__tapvpwrvgnd_1
XPHY_2931 VGND VPWR sky130_fd_sc_hd__tapvpwrvgnd_1
XPHY_3676 VGND VPWR sky130_fd_sc_hd__tapvpwrvgnd_1
XFILLER_198_263 VGND VGND VPWR VPWR sky130_fd_sc_hd__decap_12
X_363_ _782_/Q VGND VGND VPWR VPWR _363_/Y sky130_fd_sc_hd__inv_2
XPHY_2942 VGND VPWR sky130_fd_sc_hd__tapvpwrvgnd_1
XFILLER_13_3221 VGND VGND VPWR VPWR sky130_fd_sc_hd__decap_12
XFILLER_158_105 VGND VGND VPWR VPWR sky130_fd_sc_hd__decap_12
XFILLER_497_1831 VGND VGND VPWR VPWR sky130_fd_sc_hd__decap_12
XFILLER_14_678 VGND VGND VPWR VPWR sky130_fd_sc_hd__decap_12
XPHY_3687 VGND VPWR sky130_fd_sc_hd__tapvpwrvgnd_1
XFILLER_497_2587 VGND VGND VPWR VPWR sky130_fd_sc_hd__decap_12
XPHY_2953 VGND VPWR sky130_fd_sc_hd__tapvpwrvgnd_1
XPHY_3698 VGND VPWR sky130_fd_sc_hd__tapvpwrvgnd_1
XPHY_2964 VGND VPWR sky130_fd_sc_hd__tapvpwrvgnd_1
XFILLER_201_245 VGND VGND VPWR VPWR sky130_fd_sc_hd__decap_12
XPHY_2975 VGND VPWR sky130_fd_sc_hd__tapvpwrvgnd_1
XPHY_2986 VGND VPWR sky130_fd_sc_hd__tapvpwrvgnd_1
XFILLER_139_330 VGND VGND VPWR VPWR sky130_fd_sc_hd__decap_12
XFILLER_536_349 VGND VGND VPWR VPWR sky130_fd_sc_hd__decap_12
X_294_ _807_/Q VGND VGND VPWR VPWR _294_/Y sky130_fd_sc_hd__inv_2
XPHY_2997 VGND VPWR sky130_fd_sc_hd__tapvpwrvgnd_1
XFILLER_6_800 VGND VGND VPWR VPWR sky130_fd_sc_hd__decap_12
XFILLER_375_27 VGND VGND VPWR VPWR sky130_fd_sc_hd__decap_12
XFILLER_276_3073 VGND VGND VPWR VPWR sky130_fd_sc_hd__decap_12
XFILLER_154_300 VGND VGND VPWR VPWR sky130_fd_sc_hd__decap_12
XFILLER_517_574 VGND VGND VPWR VPWR sky130_fd_sc_hd__decap_12
XFILLER_13_2575 VGND VGND VPWR VPWR sky130_fd_sc_hd__decap_12
XFILLER_534_1703 VGND VGND VPWR VPWR sky130_fd_sc_hd__decap_12
XFILLER_10_873 VGND VGND VPWR VPWR sky130_fd_sc_hd__decap_12
XFILLER_504_202 VGND VGND VPWR VPWR sky130_fd_sc_hd__decap_12
XFILLER_534_2459 VGND VGND VPWR VPWR sky130_fd_sc_hd__decap_12
XFILLER_489_415 VGND VGND VPWR VPWR sky130_fd_sc_hd__decap_12
XFILLER_355_293 VGND VGND VPWR VPWR sky130_fd_sc_hd__decap_12
XFILLER_519_1282 VGND VGND VPWR VPWR sky130_fd_sc_hd__decap_12
XFILLER_532_544 VGND VGND VPWR VPWR sky130_fd_sc_hd__decap_12
XFILLER_491_2197 VGND VGND VPWR VPWR sky130_fd_sc_hd__decap_12
XFILLER_491_1452 VGND VGND VPWR VPWR sky130_fd_sc_hd__decap_12
XFILLER_315_135 VGND VGND VPWR VPWR sky130_fd_sc_hd__decap_12
XFILLER_308_32 VGND VGND VPWR VPWR sky130_fd_sc_hd__decap_12
XFILLER_505_769 VGND VGND VPWR VPWR sky130_fd_sc_hd__decap_12
Xblk.column\[8\].row\[2\].yc blk.column\[8\].row\[2\].yc/cbitin blk.column\[8\].row\[3\].yc/cbitin
+ blk.column\[8\].row\[2\].yc/confclk blk.column\[8\].row\[3\].yc/confclk blk.column\[8\].row\[2\].yc/dempty
+ blk.column\[8\].row\[2\].yc/din[0] blk.column\[8\].row\[2\].yc/din[1] blk.column\[8\].row\[3\].yc/uin[0]
+ blk.column\[8\].row\[3\].yc/uin[1] blk.column\[8\].row\[2\].yc/hempty blk.column\[7\].row\[2\].yc/lempty
+ blk.column\[8\].row\[2\].yc/lempty blk.column\[8\].row\[2\].yc/lin[0] blk.column\[8\].row\[2\].yc/lin[1]
+ blk.column\[9\].row\[2\].yc/rin[0] blk.column\[9\].row\[2\].yc/rin[1] blk.column\[7\].row\[2\].yc/hempty
+ blk.column\[8\].row\[2\].yc/reset blk.column\[8\].row\[3\].yc/reset blk.column\[8\].row\[2\].yc/rin[0]
+ blk.column\[8\].row\[2\].yc/rin[1] blk.column\[7\].row\[2\].yc/lin[0] blk.column\[7\].row\[2\].yc/lin[1]
+ blk.column\[8\].row\[2\].yc/uempty blk.column\[8\].row\[2\].yc/uin[0] blk.column\[8\].row\[2\].yc/uin[1]
+ blk.column\[8\].row\[1\].yc/din[0] blk.column\[8\].row\[1\].yc/din[1] blk.column\[8\].row\[1\].yc/dempty
+ blk.column\[8\].row\[3\].yc/uempty VPWR VGND ycell
XFILLER_515_1135 VGND VGND VPWR VPWR sky130_fd_sc_hd__decap_12
XFILLER_370_263 VGND VGND VPWR VPWR sky130_fd_sc_hd__decap_12
XFILLER_430_3158 VGND VGND VPWR VPWR sky130_fd_sc_hd__decap_12
XFILLER_330_105 VGND VGND VPWR VPWR sky130_fd_sc_hd__decap_12
XFILLER_520_739 VGND VGND VPWR VPWR sky130_fd_sc_hd__decap_12
XFILLER_498_971 VGND VGND VPWR VPWR sky130_fd_sc_hd__decap_12
XFILLER_391_15 VGND VGND VPWR VPWR sky130_fd_sc_hd__decap_12
XFILLER_181_196 VGND VGND VPWR VPWR sky130_fd_sc_hd__decap_12
XFILLER_46_3085 VGND VGND VPWR VPWR sky130_fd_sc_hd__decap_12
XFILLER_107_293 VGND VGND VPWR VPWR sky130_fd_sc_hd__decap_12
XFILLER_532_1471 VGND VGND VPWR VPWR sky130_fd_sc_hd__decap_12
XFILLER_152_2922 VGND VGND VPWR VPWR sky130_fd_sc_hd__decap_12
XFILLER_311_330 VGND VGND VPWR VPWR sky130_fd_sc_hd__decap_12
XPHY_11640 VGND VPWR sky130_fd_sc_hd__tapvpwrvgnd_1
XFILLER_133_3066 VGND VGND VPWR VPWR sky130_fd_sc_hd__decap_12
XFILLER_191_2993 VGND VGND VPWR VPWR sky130_fd_sc_hd__decap_12
XFILLER_501_964 VGND VGND VPWR VPWR sky130_fd_sc_hd__decap_12
XFILLER_391_59 VGND VGND VPWR VPWR sky130_fd_sc_hd__fill_2
XPHY_11651 VGND VPWR sky130_fd_sc_hd__tapvpwrvgnd_1
XFILLER_122_263 VGND VGND VPWR VPWR sky130_fd_sc_hd__decap_12
XPHY_11662 VGND VPWR sky130_fd_sc_hd__tapvpwrvgnd_1
XPHY_11673 VGND VPWR sky130_fd_sc_hd__tapvpwrvgnd_1
XFILLER_457_367 VGND VGND VPWR VPWR sky130_fd_sc_hd__fill_2
XFILLER_482_2801 VGND VGND VPWR VPWR sky130_fd_sc_hd__decap_12
XPHY_10950 VGND VPWR sky130_fd_sc_hd__tapvpwrvgnd_1
XPHY_10961 VGND VPWR sky130_fd_sc_hd__tapvpwrvgnd_1
XFILLER_95_147 VGND VGND VPWR VPWR sky130_fd_sc_hd__decap_12
XPHY_10972 VGND VPWR sky130_fd_sc_hd__tapvpwrvgnd_1
XFILLER_485_1245 VGND VGND VPWR VPWR sky130_fd_sc_hd__decap_12
XFILLER_472_337 VGND VGND VPWR VPWR sky130_fd_sc_hd__decap_12
XPHY_10983 VGND VPWR sky130_fd_sc_hd__tapvpwrvgnd_1
XPHY_10994 VGND VPWR sky130_fd_sc_hd__tapvpwrvgnd_1
XFILLER_425_220 VGND VGND VPWR VPWR sky130_fd_sc_hd__decap_12
XFILLER_76_361 VGND VGND VPWR VPWR sky130_fd_sc_hd__decap_8
XFILLER_209_3115 VGND VGND VPWR VPWR sky130_fd_sc_hd__decap_12
XFILLER_20_1801 VGND VGND VPWR VPWR sky130_fd_sc_hd__decap_12
XFILLER_283_3066 VGND VGND VPWR VPWR sky130_fd_sc_hd__decap_12
XFILLER_20_2557 VGND VGND VPWR VPWR sky130_fd_sc_hd__decap_12
XFILLER_498_3008 VGND VGND VPWR VPWR sky130_fd_sc_hd__decap_12
XFILLER_0_2629 VGND VGND VPWR VPWR sky130_fd_sc_hd__decap_6
XFILLER_190_93 VGND VGND VPWR VPWR sky130_fd_sc_hd__decap_12
XFILLER_209_367 VGND VGND VPWR VPWR sky130_fd_sc_hd__fill_2
XFILLER_523_2831 VGND VGND VPWR VPWR sky130_fd_sc_hd__decap_12
XPHY_6280 VGND VPWR sky130_fd_sc_hd__tapvpwrvgnd_1
XPHY_6291 VGND VPWR sky130_fd_sc_hd__tapvpwrvgnd_1
XFILLER_91_342 VGND VGND VPWR VPWR sky130_fd_sc_hd__decap_12
XFILLER_526_1264 VGND VGND VPWR VPWR sky130_fd_sc_hd__decap_12
XFILLER_291_281 VGND VGND VPWR VPWR sky130_fd_sc_hd__decap_12
XFILLER_506_1849 VGND VGND VPWR VPWR sky130_fd_sc_hd__decap_12
XFILLER_224_337 VGND VGND VPWR VPWR sky130_fd_sc_hd__decap_12
XFILLER_251_123 VGND VGND VPWR VPWR sky130_fd_sc_hd__decap_12
XFILLER_522_1117 VGND VGND VPWR VPWR sky130_fd_sc_hd__decap_12
XFILLER_92_3061 VGND VGND VPWR VPWR sky130_fd_sc_hd__decap_12
XFILLER_504_2252 VGND VGND VPWR VPWR sky130_fd_sc_hd__decap_12
XPHY_5590 VGND VPWR sky130_fd_sc_hd__tapvpwrvgnd_1
XFILLER_18_3143 VGND VGND VPWR VPWR sky130_fd_sc_hd__decap_12
XFILLER_18_995 VGND VGND VPWR VPWR sky130_fd_sc_hd__decap_12
XFILLER_539_110 VGND VGND VPWR VPWR sky130_fd_sc_hd__decap_12
XFILLER_324_3085 VGND VGND VPWR VPWR sky130_fd_sc_hd__decap_12
XFILLER_304_2925 VGND VGND VPWR VPWR sky130_fd_sc_hd__decap_12
XFILLER_72_2934 VGND VGND VPWR VPWR sky130_fd_sc_hd__decap_4
XFILLER_539_3038 VGND VGND VPWR VPWR sky130_fd_sc_hd__decap_12
XFILLER_359_3115 VGND VGND VPWR VPWR sky130_fd_sc_hd__decap_12
XFILLER_496_2020 VGND VGND VPWR VPWR sky130_fd_sc_hd__decap_12
XFILLER_269_39 VGND VGND VPWR VPWR sky130_fd_sc_hd__decap_12
XFILLER_53_3078 VGND VGND VPWR VPWR sky130_fd_sc_hd__decap_12
XFILLER_144_3195 VGND VGND VPWR VPWR sky130_fd_sc_hd__decap_12
XFILLER_140_3048 VGND VGND VPWR VPWR sky130_fd_sc_hd__decap_12
XFILLER_179_3225 VGND VGND VPWR VPWR sky130_fd_sc_hd__decap_8
XFILLER_338_227 VGND VGND VPWR VPWR sky130_fd_sc_hd__decap_12
XFILLER_18_1752 VGND VGND VPWR VPWR sky130_fd_sc_hd__decap_12
XFILLER_220_3061 VGND VGND VPWR VPWR sky130_fd_sc_hd__decap_12
XFILLER_500_1459 VGND VGND VPWR VPWR sky130_fd_sc_hd__decap_12
XFILLER_14_1605 VGND VGND VPWR VPWR sky130_fd_sc_hd__decap_12
XFILLER_493_2941 VGND VGND VPWR VPWR sky130_fd_sc_hd__decap_12
XFILLER_537_2050 VGND VGND VPWR VPWR sky130_fd_sc_hd__decap_12
XFILLER_517_2624 VGND VGND VPWR VPWR sky130_fd_sc_hd__decap_12
XFILLER_496_1374 VGND VGND VPWR VPWR sky130_fd_sc_hd__decap_12
XFILLER_474_3085 VGND VGND VPWR VPWR sky130_fd_sc_hd__decap_12
XFILLER_353_208 VGND VGND VPWR VPWR sky130_fd_sc_hd__decap_12
XFILLER_200_2934 VGND VGND VPWR VPWR sky130_fd_sc_hd__decap_4
XFILLER_492_1227 VGND VGND VPWR VPWR sky130_fd_sc_hd__decap_12
XFILLER_285_27 VGND VGND VPWR VPWR sky130_fd_sc_hd__decap_12
XFILLER_157_171 VGND VGND VPWR VPWR sky130_fd_sc_hd__decap_12
XFILLER_294_3195 VGND VGND VPWR VPWR sky130_fd_sc_hd__decap_12
Xblk.column\[2\].row\[10\].yc blk.column\[2\].row\[9\].yc/cbitout blk.column\[2\].row\[11\].yc/cbitin