*---------------------------------------------------------------------------
* SPDX-FileCopyrightText: 2020 Efabless Corporation
* Licensed under the Apache License, Version 2.0 (the "License");
* you may not use this file except in compliance with the License.
* You may obtain a copy of the License at
*
*     https://www.apache.org/licenses/LICENSE-2.0
*
* Unless required by applicable law or agreed to in writing, software
* distributed under the License is distributed on an "AS IS" BASIS,
* WITHOUT WARRANTIES OR CONDITIONS OF ANY KIND, either express or implied.
* See the License for the specific language governing permissions and
* limitations under the License.
*
* SPDX-License-Identifier: Apache-2.0
*---------------------------------------------------------------------------
* NGSPICE file created from dummy_slave.ext - technology: sky130A

* Black-box entry subcircuit for sky130_fd_sc_hd__decap_8 abstract view
.subckt sky130_fd_sc_hd__decap_8 VGND VNB VPB VPWR
.ends

* Black-box entry subcircuit for sky130_fd_sc_hd__dfxtp_4 abstract view
.subckt sky130_fd_sc_hd__dfxtp_4 CLK D VGND VNB VPB VPWR Q
.ends

* Black-box entry subcircuit for sky130_fd_sc_hd__a2bb2o_4 abstract view
.subckt sky130_fd_sc_hd__a2bb2o_4 A1_N A2_N B1 B2 VGND VNB VPB VPWR X
.ends

* Black-box entry subcircuit for sky130_fd_sc_hd__fill_2 abstract view
.subckt sky130_fd_sc_hd__fill_2 VGND VNB VPB VPWR
.ends

* Black-box entry subcircuit for sky130_fd_sc_hd__decap_12 abstract view
.subckt sky130_fd_sc_hd__decap_12 VGND VNB VPB VPWR
.ends

* Black-box entry subcircuit for sky130_fd_sc_hd__decap_3 abstract view
.subckt sky130_fd_sc_hd__decap_3 VGND VNB VPB VPWR
.ends

* Black-box entry subcircuit for sky130_fd_sc_hd__tapvpwrvgnd_1 abstract view
.subckt sky130_fd_sc_hd__tapvpwrvgnd_1 VGND VPWR
.ends

* Black-box entry subcircuit for sky130_fd_sc_hd__inv_2 abstract view
.subckt sky130_fd_sc_hd__inv_2 A VGND VNB VPB VPWR Y
.ends

* Black-box entry subcircuit for sky130_fd_sc_hd__fill_1 abstract view
.subckt sky130_fd_sc_hd__fill_1 VGND VNB VPB VPWR
.ends

* Black-box entry subcircuit for sky130_fd_sc_hd__decap_6 abstract view
.subckt sky130_fd_sc_hd__decap_6 VGND VNB VPB VPWR
.ends

* Black-box entry subcircuit for sky130_fd_sc_hd__buf_8 abstract view
.subckt sky130_fd_sc_hd__buf_8 A VGND VNB VPB VPWR X
.ends

* Black-box entry subcircuit for sky130_fd_sc_hd__o22a_4 abstract view
.subckt sky130_fd_sc_hd__o22a_4 A1 A2 B1 B2 VGND VNB VPB VPWR X
.ends

* Black-box entry subcircuit for sky130_fd_sc_hd__decap_4 abstract view
.subckt sky130_fd_sc_hd__decap_4 VGND VNB VPB VPWR
.ends

* Black-box entry subcircuit for sky130_fd_sc_hd__buf_2 abstract view
.subckt sky130_fd_sc_hd__buf_2 A VGND VNB VPB VPWR X
.ends

* Black-box entry subcircuit for sky130_fd_sc_hd__and3_4 abstract view
.subckt sky130_fd_sc_hd__and3_4 A B C VGND VNB VPB VPWR X
.ends

* Black-box entry subcircuit for sky130_fd_sc_hd__and4_4 abstract view
.subckt sky130_fd_sc_hd__and4_4 A B C D VGND VNB VPB VPWR X
.ends

* Black-box entry subcircuit for sky130_fd_sc_hd__inv_8 abstract view
.subckt sky130_fd_sc_hd__inv_8 A VGND VNB VPB VPWR Y
.ends

.subckt dummy_slave wb_ack_o wb_adr_i[0] wb_adr_i[10] wb_adr_i[11] wb_adr_i[12] wb_adr_i[13]
+ wb_adr_i[14] wb_adr_i[15] wb_adr_i[16] wb_adr_i[17] wb_adr_i[18] wb_adr_i[19] wb_adr_i[1]
+ wb_adr_i[20] wb_adr_i[21] wb_adr_i[22] wb_adr_i[23] wb_adr_i[24] wb_adr_i[25] wb_adr_i[26]
+ wb_adr_i[27] wb_adr_i[28] wb_adr_i[29] wb_adr_i[2] wb_adr_i[30] wb_adr_i[31] wb_adr_i[3]
+ wb_adr_i[4] wb_adr_i[5] wb_adr_i[6] wb_adr_i[7] wb_adr_i[8] wb_adr_i[9] wb_clk_i
+ wb_cyc_i wb_dat_i[0] wb_dat_i[10] wb_dat_i[11] wb_dat_i[12] wb_dat_i[13] wb_dat_i[14]
+ wb_dat_i[15] wb_dat_i[16] wb_dat_i[17] wb_dat_i[18] wb_dat_i[19] wb_dat_i[1] wb_dat_i[20]
+ wb_dat_i[21] wb_dat_i[22] wb_dat_i[23] wb_dat_i[24] wb_dat_i[25] wb_dat_i[26] wb_dat_i[27]
+ wb_dat_i[28] wb_dat_i[29] wb_dat_i[2] wb_dat_i[30] wb_dat_i[31] wb_dat_i[3] wb_dat_i[4]
+ wb_dat_i[5] wb_dat_i[6] wb_dat_i[7] wb_dat_i[8] wb_dat_i[9] wb_dat_o[0] wb_dat_o[10]
+ wb_dat_o[11] wb_dat_o[12] wb_dat_o[13] wb_dat_o[14] wb_dat_o[15] wb_dat_o[16] wb_dat_o[17]
+ wb_dat_o[18] wb_dat_o[19] wb_dat_o[1] wb_dat_o[20] wb_dat_o[21] wb_dat_o[22] wb_dat_o[23]
+ wb_dat_o[24] wb_dat_o[25] wb_dat_o[26] wb_dat_o[27] wb_dat_o[28] wb_dat_o[29] wb_dat_o[2]
+ wb_dat_o[30] wb_dat_o[31] wb_dat_o[3] wb_dat_o[4] wb_dat_o[5] wb_dat_o[6] wb_dat_o[7]
+ wb_dat_o[8] wb_dat_o[9] wb_rst_i wb_sel_i[0] wb_sel_i[1] wb_sel_i[2] wb_sel_i[3]
+ wb_stb_i wb_we_i VPWR VGND
XFILLER_22_199 VGND VGND VPWR VPWR sky130_fd_sc_hd__decap_8
XFILLER_22_122 VGND VGND VPWR VPWR sky130_fd_sc_hd__decap_8
X_294_ wb_clk_i _294_/D VGND VGND VPWR VPWR _196_/A sky130_fd_sc_hd__dfxtp_4
X_277_ wb_clk_i _277_/D VGND VGND VPWR VPWR _241_/A sky130_fd_sc_hd__dfxtp_4
XFILLER_23_53 VGND VGND VPWR VPWR sky130_fd_sc_hd__decap_8
X_200_ _199_/Y _197_/X wb_dat_i[1] _197_/X VGND VGND VPWR VPWR _293_/D sky130_fd_sc_hd__a2bb2o_4
X_329_ wb_clk_i _141_/X VGND VGND VPWR VPWR wb_dat_o[29] sky130_fd_sc_hd__dfxtp_4
XFILLER_17_9 VGND VGND VPWR VPWR sky130_fd_sc_hd__decap_8
XFILLER_2_154 VGND VGND VPWR VPWR sky130_fd_sc_hd__decap_8
XFILLER_9_11 VGND VGND VPWR VPWR sky130_fd_sc_hd__fill_2
XFILLER_34_63 VGND VGND VPWR VPWR sky130_fd_sc_hd__decap_12
XFILLER_29_74 VGND VGND VPWR VPWR sky130_fd_sc_hd__decap_12
XFILLER_6_23 VGND VGND VPWR VPWR sky130_fd_sc_hd__decap_8
XFILLER_13_3 VGND VGND VPWR VPWR sky130_fd_sc_hd__decap_3
XPHY_170 VGND VPWR sky130_fd_sc_hd__tapvpwrvgnd_1
XFILLER_31_123 VGND VGND VPWR VPWR sky130_fd_sc_hd__decap_12
XFILLER_31_86 VGND VGND VPWR VPWR sky130_fd_sc_hd__decap_12
XFILLER_22_145 VGND VGND VPWR VPWR sky130_fd_sc_hd__decap_8
XFILLER_22_134 VGND VGND VPWR VPWR sky130_fd_sc_hd__decap_8
XFILLER_3_13 VGND VGND VPWR VPWR sky130_fd_sc_hd__decap_8
X_293_ wb_clk_i _293_/D VGND VGND VPWR VPWR _199_/A sky130_fd_sc_hd__dfxtp_4
XFILLER_13_112 VGND VGND VPWR VPWR sky130_fd_sc_hd__decap_8
XFILLER_27_204 VGND VGND VPWR VPWR sky130_fd_sc_hd__decap_3
X_276_ wb_clk_i _276_/D VGND VGND VPWR VPWR _243_/A sky130_fd_sc_hd__dfxtp_4
XFILLER_5_152 VGND VGND VPWR VPWR sky130_fd_sc_hd__decap_8
X_259_ _259_/A VGND VGND VPWR VPWR _259_/Y sky130_fd_sc_hd__inv_2
X_328_ wb_clk_i _142_/X VGND VGND VPWR VPWR wb_dat_o[28] sky130_fd_sc_hd__dfxtp_4
XFILLER_34_75 VGND VGND VPWR VPWR sky130_fd_sc_hd__decap_12
XFILLER_18_32 VGND VGND VPWR VPWR sky130_fd_sc_hd__fill_2
XFILLER_29_86 VGND VGND VPWR VPWR sky130_fd_sc_hd__decap_12
XFILLER_20_44 VGND VGND VPWR VPWR sky130_fd_sc_hd__decap_8
XFILLER_19_151 VGND VGND VPWR VPWR sky130_fd_sc_hd__decap_8
XFILLER_34_187 VGND VGND VPWR VPWR sky130_fd_sc_hd__decap_12
XFILLER_25_110 VGND VGND VPWR VPWR sky130_fd_sc_hd__decap_12
XFILLER_15_66 VGND VGND VPWR VPWR sky130_fd_sc_hd__fill_1
XPHY_171 VGND VPWR sky130_fd_sc_hd__tapvpwrvgnd_1
XFILLER_31_135 VGND VGND VPWR VPWR sky130_fd_sc_hd__decap_12
XFILLER_31_98 VGND VGND VPWR VPWR sky130_fd_sc_hd__decap_12
XPHY_160 VGND VPWR sky130_fd_sc_hd__tapvpwrvgnd_1
XFILLER_16_154 VGND VGND VPWR VPWR sky130_fd_sc_hd__decap_8
XFILLER_16_121 VGND VGND VPWR VPWR sky130_fd_sc_hd__decap_8
XFILLER_30_190 VGND VGND VPWR VPWR sky130_fd_sc_hd__decap_12
XFILLER_26_32 VGND VGND VPWR VPWR sky130_fd_sc_hd__decap_12
X_292_ wb_clk_i _292_/D VGND VGND VPWR VPWR _201_/A sky130_fd_sc_hd__dfxtp_4
XFILLER_12_23 VGND VGND VPWR VPWR sky130_fd_sc_hd__decap_8
X_275_ wb_clk_i _275_/D VGND VGND VPWR VPWR _245_/A sky130_fd_sc_hd__dfxtp_4
XFILLER_5_131 VGND VGND VPWR VPWR sky130_fd_sc_hd__fill_2
XFILLER_5_175 VGND VGND VPWR VPWR sky130_fd_sc_hd__decap_8
XFILLER_3_3 VGND VGND VPWR VPWR sky130_fd_sc_hd__fill_1
XFILLER_2_145 VGND VGND VPWR VPWR sky130_fd_sc_hd__decap_8
X_258_ _257_/Y _253_/X wb_dat_i[27] _253_/X VGND VGND VPWR VPWR _271_/D sky130_fd_sc_hd__a2bb2o_4
X_327_ wb_clk_i _145_/X VGND VGND VPWR VPWR wb_dat_o[27] sky130_fd_sc_hd__dfxtp_4
X_189_ _297_/Q VGND VGND VPWR VPWR _189_/Y sky130_fd_sc_hd__inv_2
XFILLER_34_87 VGND VGND VPWR VPWR sky130_fd_sc_hd__decap_6
XFILLER_34_32 VGND VGND VPWR VPWR sky130_fd_sc_hd__decap_12
XFILLER_18_99 VGND VGND VPWR VPWR sky130_fd_sc_hd__decap_8
XFILLER_20_23 VGND VGND VPWR VPWR sky130_fd_sc_hd__decap_8
XFILLER_29_98 VGND VGND VPWR VPWR sky130_fd_sc_hd__decap_12
XFILLER_28_141 VGND VGND VPWR VPWR sky130_fd_sc_hd__decap_12
XFILLER_34_199 VGND VGND VPWR VPWR sky130_fd_sc_hd__decap_8
XFILLER_19_196 VGND VGND VPWR VPWR sky130_fd_sc_hd__decap_8
XPHY_172 VGND VPWR sky130_fd_sc_hd__tapvpwrvgnd_1
XFILLER_31_147 VGND VGND VPWR VPWR sky130_fd_sc_hd__decap_12
XPHY_161 VGND VPWR sky130_fd_sc_hd__tapvpwrvgnd_1
XPHY_150 VGND VPWR sky130_fd_sc_hd__tapvpwrvgnd_1
XFILLER_26_44 VGND VGND VPWR VPWR sky130_fd_sc_hd__decap_12
X_291_ wb_clk_i _291_/D VGND VGND VPWR VPWR _291_/Q sky130_fd_sc_hd__dfxtp_4
XFILLER_3_48 VGND VGND VPWR VPWR sky130_fd_sc_hd__fill_1
XFILLER_8_151 VGND VGND VPWR VPWR sky130_fd_sc_hd__fill_2
XFILLER_8_173 VGND VGND VPWR VPWR sky130_fd_sc_hd__decap_8
XFILLER_10_139 VGND VGND VPWR VPWR sky130_fd_sc_hd__decap_12
XFILLER_18_206 VGND VGND VPWR VPWR sky130_fd_sc_hd__fill_1
X_274_ wb_clk_i _274_/D VGND VGND VPWR VPWR _250_/A sky130_fd_sc_hd__dfxtp_4
XFILLER_5_198 VGND VGND VPWR VPWR sky130_fd_sc_hd__decap_8
XFILLER_4_80 VGND VGND VPWR VPWR sky130_fd_sc_hd__decap_12
XFILLER_23_78 VGND VGND VPWR VPWR sky130_fd_sc_hd__fill_1
XFILLER_23_23 VGND VGND VPWR VPWR sky130_fd_sc_hd__decap_3
XFILLER_29_3 VGND VGND VPWR VPWR sky130_fd_sc_hd__decap_12
X_257_ _257_/A VGND VGND VPWR VPWR _257_/Y sky130_fd_sc_hd__inv_2
X_326_ wb_clk_i _147_/X VGND VGND VPWR VPWR wb_dat_o[26] sky130_fd_sc_hd__dfxtp_4
X_188_ _187_/Y _185_/X wb_dat_i[6] _185_/X VGND VGND VPWR VPWR _298_/D sky130_fd_sc_hd__a2bb2o_4
XFILLER_34_44 VGND VGND VPWR VPWR sky130_fd_sc_hd__decap_12
XFILLER_18_67 VGND VGND VPWR VPWR sky130_fd_sc_hd__decap_3
XFILLER_18_23 VGND VGND VPWR VPWR sky130_fd_sc_hd__decap_8
XFILLER_15_9 VGND VGND VPWR VPWR sky130_fd_sc_hd__decap_8
X_309_ wb_clk_i _309_/D VGND VGND VPWR VPWR wb_dat_o[9] sky130_fd_sc_hd__dfxtp_4
XFILLER_34_156 VGND VGND VPWR VPWR sky130_fd_sc_hd__decap_12
XFILLER_19_175 VGND VGND VPWR VPWR sky130_fd_sc_hd__decap_8
XFILLER_25_123 VGND VGND VPWR VPWR sky130_fd_sc_hd__decap_12
XPHY_173 VGND VPWR sky130_fd_sc_hd__tapvpwrvgnd_1
XFILLER_31_159 VGND VGND VPWR VPWR sky130_fd_sc_hd__decap_12
XPHY_162 VGND VPWR sky130_fd_sc_hd__tapvpwrvgnd_1
XPHY_151 VGND VPWR sky130_fd_sc_hd__tapvpwrvgnd_1
XPHY_140 VGND VPWR sky130_fd_sc_hd__tapvpwrvgnd_1
XFILLER_16_145 VGND VGND VPWR VPWR sky130_fd_sc_hd__decap_8
XFILLER_11_3 VGND VGND VPWR VPWR sky130_fd_sc_hd__decap_8
XFILLER_26_56 VGND VGND VPWR VPWR sky130_fd_sc_hd__decap_12
X_290_ wb_clk_i _290_/D VGND VGND VPWR VPWR _208_/A sky130_fd_sc_hd__dfxtp_4
XFILLER_9_108 VGND VGND VPWR VPWR sky130_fd_sc_hd__decap_12
XFILLER_12_36 VGND VGND VPWR VPWR sky130_fd_sc_hd__decap_8
X_273_ wb_clk_i _273_/D VGND VGND VPWR VPWR _252_/A sky130_fd_sc_hd__dfxtp_4
XFILLER_5_111 VGND VGND VPWR VPWR sky130_fd_sc_hd__decap_8
X_256_ _255_/Y _253_/X wb_dat_i[28] _253_/X VGND VGND VPWR VPWR _272_/D sky130_fd_sc_hd__a2bb2o_4
X_325_ wb_clk_i _148_/X VGND VGND VPWR VPWR wb_dat_o[25] sky130_fd_sc_hd__dfxtp_4
X_187_ _298_/Q VGND VGND VPWR VPWR _187_/Y sky130_fd_sc_hd__inv_2
XFILLER_34_56 VGND VGND VPWR VPWR sky130_fd_sc_hd__decap_6
XFILLER_7_206 VGND VGND VPWR VPWR sky130_fd_sc_hd__fill_1
X_239_ _239_/A VGND VGND VPWR VPWR _239_/X sky130_fd_sc_hd__buf_8
X_308_ wb_clk_i _308_/D VGND VGND VPWR VPWR wb_dat_o[8] sky130_fd_sc_hd__dfxtp_4
XFILLER_28_154 VGND VGND VPWR VPWR sky130_fd_sc_hd__decap_12
XFILLER_34_168 VGND VGND VPWR VPWR sky130_fd_sc_hd__decap_12
XFILLER_25_135 VGND VGND VPWR VPWR sky130_fd_sc_hd__decap_12
XPHY_174 VGND VPWR sky130_fd_sc_hd__tapvpwrvgnd_1
XPHY_163 VGND VPWR sky130_fd_sc_hd__tapvpwrvgnd_1
XPHY_152 VGND VPWR sky130_fd_sc_hd__tapvpwrvgnd_1
XPHY_141 VGND VPWR sky130_fd_sc_hd__tapvpwrvgnd_1
XFILLER_21_90 VGND VGND VPWR VPWR sky130_fd_sc_hd__decap_12
XPHY_130 VGND VPWR sky130_fd_sc_hd__tapvpwrvgnd_1
XFILLER_7_81 VGND VGND VPWR VPWR sky130_fd_sc_hd__decap_8
XFILLER_26_68 VGND VGND VPWR VPWR sky130_fd_sc_hd__decap_12
XFILLER_8_197 VGND VGND VPWR VPWR sky130_fd_sc_hd__decap_8
X_272_ wb_clk_i _272_/D VGND VGND VPWR VPWR _255_/A sky130_fd_sc_hd__dfxtp_4
XFILLER_5_123 VGND VGND VPWR VPWR sky130_fd_sc_hd__decap_8
X_255_ _255_/A VGND VGND VPWR VPWR _255_/Y sky130_fd_sc_hd__inv_2
X_186_ _182_/Y _185_/X wb_dat_i[7] _185_/X VGND VGND VPWR VPWR _299_/D sky130_fd_sc_hd__a2bb2o_4
X_324_ wb_clk_i _149_/X VGND VGND VPWR VPWR wb_dat_o[24] sky130_fd_sc_hd__dfxtp_4
XFILLER_1_3 VGND VGND VPWR VPWR sky130_fd_sc_hd__decap_3
XFILLER_34_3 VGND VGND VPWR VPWR sky130_fd_sc_hd__decap_12
X_238_ _238_/A VGND VGND VPWR VPWR _238_/Y sky130_fd_sc_hd__inv_2
X_169_ _165_/X wb_dat_o[10] _167_/X _217_/A VGND VGND VPWR VPWR _310_/D sky130_fd_sc_hd__o22a_4
X_307_ wb_clk_i _307_/D VGND VGND VPWR VPWR wb_dat_o[7] sky130_fd_sc_hd__dfxtp_4
XFILLER_28_166 VGND VGND VPWR VPWR sky130_fd_sc_hd__decap_12
XFILLER_34_125 VGND VGND VPWR VPWR sky130_fd_sc_hd__decap_12
XFILLER_19_90 VGND VGND VPWR VPWR sky130_fd_sc_hd__decap_8
XFILLER_10_70 VGND VGND VPWR VPWR sky130_fd_sc_hd__decap_8
XFILLER_25_147 VGND VGND VPWR VPWR sky130_fd_sc_hd__decap_12
XPHY_175 VGND VPWR sky130_fd_sc_hd__tapvpwrvgnd_1
XPHY_164 VGND VPWR sky130_fd_sc_hd__tapvpwrvgnd_1
XPHY_153 VGND VPWR sky130_fd_sc_hd__tapvpwrvgnd_1
XPHY_142 VGND VPWR sky130_fd_sc_hd__tapvpwrvgnd_1
XPHY_131 VGND VPWR sky130_fd_sc_hd__tapvpwrvgnd_1
XPHY_120 VGND VPWR sky130_fd_sc_hd__tapvpwrvgnd_1
XPHY_0 VGND VGND VPWR VPWR sky130_fd_sc_hd__decap_3
X_271_ wb_clk_i _271_/D VGND VGND VPWR VPWR _257_/A sky130_fd_sc_hd__dfxtp_4
XFILLER_23_15 VGND VGND VPWR VPWR sky130_fd_sc_hd__decap_8
X_254_ _252_/Y _248_/X wb_dat_i[29] _253_/X VGND VGND VPWR VPWR _273_/D sky130_fd_sc_hd__a2bb2o_4
X_185_ _185_/A VGND VGND VPWR VPWR _185_/X sky130_fd_sc_hd__buf_8
X_323_ wb_clk_i _150_/X VGND VGND VPWR VPWR wb_dat_o[23] sky130_fd_sc_hd__dfxtp_4
XFILLER_13_70 VGND VGND VPWR VPWR sky130_fd_sc_hd__fill_2
XFILLER_20_204 VGND VGND VPWR VPWR sky130_fd_sc_hd__decap_3
XFILLER_18_59 VGND VGND VPWR VPWR sky130_fd_sc_hd__decap_8
XFILLER_18_37 VGND VGND VPWR VPWR sky130_fd_sc_hd__decap_8
XFILLER_27_3 VGND VGND VPWR VPWR sky130_fd_sc_hd__decap_12
XFILLER_24_80 VGND VGND VPWR VPWR sky130_fd_sc_hd__decap_12
X_237_ _236_/Y _232_/X wb_dat_i[19] _232_/X VGND VGND VPWR VPWR _279_/D sky130_fd_sc_hd__a2bb2o_4
X_306_ wb_clk_i _306_/D VGND VGND VPWR VPWR wb_dat_o[6] sky130_fd_sc_hd__dfxtp_4
X_168_ _165_/X wb_dat_o[11] _167_/X _215_/A VGND VGND VPWR VPWR _311_/D sky130_fd_sc_hd__o22a_4
XFILLER_1_62 VGND VGND VPWR VPWR sky130_fd_sc_hd__decap_6
XFILLER_34_137 VGND VGND VPWR VPWR sky130_fd_sc_hd__decap_12
XFILLER_28_178 VGND VGND VPWR VPWR sky130_fd_sc_hd__decap_12
XFILLER_19_134 VGND VGND VPWR VPWR sky130_fd_sc_hd__fill_1
XFILLER_13_9 VGND VGND VPWR VPWR sky130_fd_sc_hd__decap_8
XFILLER_25_159 VGND VGND VPWR VPWR sky130_fd_sc_hd__decap_12
XPHY_176 VGND VPWR sky130_fd_sc_hd__tapvpwrvgnd_1
XFILLER_31_59 VGND VGND VPWR VPWR sky130_fd_sc_hd__fill_2
XFILLER_31_15 VGND VGND VPWR VPWR sky130_fd_sc_hd__decap_12
XPHY_165 VGND VPWR sky130_fd_sc_hd__tapvpwrvgnd_1
XPHY_154 VGND VPWR sky130_fd_sc_hd__tapvpwrvgnd_1
XFILLER_24_192 VGND VGND VPWR VPWR sky130_fd_sc_hd__decap_12
XPHY_143 VGND VPWR sky130_fd_sc_hd__tapvpwrvgnd_1
XPHY_132 VGND VPWR sky130_fd_sc_hd__tapvpwrvgnd_1
XPHY_121 VGND VPWR sky130_fd_sc_hd__tapvpwrvgnd_1
XPHY_110 VGND VPWR sky130_fd_sc_hd__tapvpwrvgnd_1
XPHY_1 VGND VGND VPWR VPWR sky130_fd_sc_hd__decap_3
XFILLER_26_15 VGND VGND VPWR VPWR sky130_fd_sc_hd__decap_12
XFILLER_21_184 VGND VGND VPWR VPWR sky130_fd_sc_hd__fill_1
XFILLER_21_151 VGND VGND VPWR VPWR sky130_fd_sc_hd__decap_8
XFILLER_32_80 VGND VGND VPWR VPWR sky130_fd_sc_hd__decap_12
XFILLER_12_151 VGND VGND VPWR VPWR sky130_fd_sc_hd__fill_2
XFILLER_12_173 VGND VGND VPWR VPWR sky130_fd_sc_hd__decap_8
X_270_ wb_clk_i _270_/D VGND VGND VPWR VPWR _259_/A sky130_fd_sc_hd__dfxtp_4
XFILLER_32_202 VGND VGND VPWR VPWR sky130_fd_sc_hd__decap_4
XFILLER_2_128 VGND VGND VPWR VPWR sky130_fd_sc_hd__decap_8
XFILLER_9_29 VGND VGND VPWR VPWR sky130_fd_sc_hd__decap_8
X_322_ wb_clk_i _322_/D VGND VGND VPWR VPWR wb_dat_o[22] sky130_fd_sc_hd__dfxtp_4
X_253_ _247_/X VGND VGND VPWR VPWR _253_/X sky130_fd_sc_hd__buf_8
X_184_ _183_/X VGND VGND VPWR VPWR _185_/A sky130_fd_sc_hd__buf_8
XFILLER_34_15 VGND VGND VPWR VPWR sky130_fd_sc_hd__decap_12
X_236_ _236_/A VGND VGND VPWR VPWR _236_/Y sky130_fd_sc_hd__inv_2
X_167_ wb_rst_i VGND VGND VPWR VPWR _167_/X sky130_fd_sc_hd__buf_2
X_305_ wb_clk_i _305_/D VGND VGND VPWR VPWR wb_dat_o[5] sky130_fd_sc_hd__dfxtp_4
XFILLER_29_15 VGND VGND VPWR VPWR sky130_fd_sc_hd__decap_12
XFILLER_29_59 VGND VGND VPWR VPWR sky130_fd_sc_hd__fill_2
XFILLER_34_149 VGND VGND VPWR VPWR sky130_fd_sc_hd__decap_6
X_219_ _217_/Y _218_/X wb_dat_i[10] _218_/X VGND VGND VPWR VPWR _286_/D sky130_fd_sc_hd__a2bb2o_4
XFILLER_33_171 VGND VGND VPWR VPWR sky130_fd_sc_hd__decap_12
XFILLER_31_27 VGND VGND VPWR VPWR sky130_fd_sc_hd__decap_12
XFILLER_18_190 VGND VGND VPWR VPWR sky130_fd_sc_hd__decap_12
XPHY_100 VGND VPWR sky130_fd_sc_hd__tapvpwrvgnd_1
XPHY_177 VGND VPWR sky130_fd_sc_hd__tapvpwrvgnd_1
XPHY_166 VGND VPWR sky130_fd_sc_hd__tapvpwrvgnd_1
XPHY_155 VGND VPWR sky130_fd_sc_hd__tapvpwrvgnd_1
XPHY_144 VGND VPWR sky130_fd_sc_hd__tapvpwrvgnd_1
XFILLER_22_108 VGND VGND VPWR VPWR sky130_fd_sc_hd__fill_2
XPHY_133 VGND VPWR sky130_fd_sc_hd__tapvpwrvgnd_1
XPHY_122 VGND VPWR sky130_fd_sc_hd__tapvpwrvgnd_1
XPHY_2 VGND VGND VPWR VPWR sky130_fd_sc_hd__decap_3
XPHY_111 VGND VPWR sky130_fd_sc_hd__tapvpwrvgnd_1
XFILLER_30_141 VGND VGND VPWR VPWR sky130_fd_sc_hd__decap_12
XFILLER_26_27 VGND VGND VPWR VPWR sky130_fd_sc_hd__decap_4
XFILLER_8_112 VGND VGND VPWR VPWR sky130_fd_sc_hd__decap_8
XFILLER_2_107 VGND VGND VPWR VPWR sky130_fd_sc_hd__fill_2
X_252_ _252_/A VGND VGND VPWR VPWR _252_/Y sky130_fd_sc_hd__inv_2
X_183_ _225_/A wb_we_i wb_sel_i[0] VGND VGND VPWR VPWR _183_/X sky130_fd_sc_hd__and3_4
X_321_ wb_clk_i _321_/D VGND VGND VPWR VPWR wb_dat_o[21] sky130_fd_sc_hd__dfxtp_4
XFILLER_34_27 VGND VGND VPWR VPWR sky130_fd_sc_hd__decap_4
XFILLER_11_206 VGND VGND VPWR VPWR sky130_fd_sc_hd__fill_1
XFILLER_24_93 VGND VGND VPWR VPWR sky130_fd_sc_hd__decap_12
X_304_ wb_clk_i _304_/D VGND VGND VPWR VPWR wb_dat_o[4] sky130_fd_sc_hd__dfxtp_4
X_235_ _234_/Y _232_/X wb_dat_i[20] _232_/X VGND VGND VPWR VPWR _280_/D sky130_fd_sc_hd__a2bb2o_4
XFILLER_1_53 VGND VGND VPWR VPWR sky130_fd_sc_hd__decap_8
X_166_ _165_/X wb_dat_o[12] _160_/X _213_/A VGND VGND VPWR VPWR _312_/D sky130_fd_sc_hd__o22a_4
XFILLER_29_27 VGND VGND VPWR VPWR sky130_fd_sc_hd__decap_12
XFILLER_34_106 VGND VGND VPWR VPWR sky130_fd_sc_hd__decap_12
XFILLER_32_3 VGND VGND VPWR VPWR sky130_fd_sc_hd__decap_12
X_218_ _218_/A VGND VGND VPWR VPWR _218_/X sky130_fd_sc_hd__buf_8
XFILLER_19_114 VGND VGND VPWR VPWR sky130_fd_sc_hd__decap_8
X_149_ _144_/X wb_dat_o[24] _146_/X _264_/A VGND VGND VPWR VPWR _149_/X sky130_fd_sc_hd__o22a_4
XFILLER_10_84 VGND VGND VPWR VPWR sky130_fd_sc_hd__decap_8
XFILLER_31_39 VGND VGND VPWR VPWR sky130_fd_sc_hd__decap_12
XPHY_178 VGND VPWR sky130_fd_sc_hd__tapvpwrvgnd_1
XPHY_167 VGND VPWR sky130_fd_sc_hd__tapvpwrvgnd_1
XPHY_156 VGND VPWR sky130_fd_sc_hd__tapvpwrvgnd_1
XFILLER_24_172 VGND VGND VPWR VPWR sky130_fd_sc_hd__fill_1
XPHY_145 VGND VPWR sky130_fd_sc_hd__tapvpwrvgnd_1
XPHY_134 VGND VPWR sky130_fd_sc_hd__tapvpwrvgnd_1
XPHY_123 VGND VPWR sky130_fd_sc_hd__tapvpwrvgnd_1
XPHY_101 VGND VPWR sky130_fd_sc_hd__tapvpwrvgnd_1
XPHY_112 VGND VPWR sky130_fd_sc_hd__tapvpwrvgnd_1
XPHY_3 VGND VGND VPWR VPWR sky130_fd_sc_hd__decap_3
XFILLER_21_175 VGND VGND VPWR VPWR sky130_fd_sc_hd__decap_8
XFILLER_32_93 VGND VGND VPWR VPWR sky130_fd_sc_hd__decap_12
XFILLER_12_197 VGND VGND VPWR VPWR sky130_fd_sc_hd__decap_8
XFILLER_23_29 VGND VGND VPWR VPWR sky130_fd_sc_hd__decap_12
XFILLER_4_53 VGND VGND VPWR VPWR sky130_fd_sc_hd__decap_8
X_251_ _250_/Y _248_/X wb_dat_i[30] _248_/X VGND VGND VPWR VPWR _274_/D sky130_fd_sc_hd__a2bb2o_4
X_182_ _299_/Q VGND VGND VPWR VPWR _182_/Y sky130_fd_sc_hd__inv_2
X_320_ wb_clk_i _155_/X VGND VGND VPWR VPWR wb_dat_o[20] sky130_fd_sc_hd__dfxtp_4
XFILLER_13_62 VGND VGND VPWR VPWR sky130_fd_sc_hd__decap_8
X_234_ _234_/A VGND VGND VPWR VPWR _234_/Y sky130_fd_sc_hd__inv_2
X_165_ _165_/A VGND VGND VPWR VPWR _165_/X sky130_fd_sc_hd__buf_2
XFILLER_1_87 VGND VGND VPWR VPWR sky130_fd_sc_hd__decap_8
XFILLER_1_10 VGND VGND VPWR VPWR sky130_fd_sc_hd__decap_8
X_303_ wb_clk_i _303_/D VGND VGND VPWR VPWR wb_dat_o[3] sky130_fd_sc_hd__dfxtp_4
XFILLER_29_39 VGND VGND VPWR VPWR sky130_fd_sc_hd__decap_12
XFILLER_34_118 VGND VGND VPWR VPWR sky130_fd_sc_hd__decap_6
X_217_ _217_/A VGND VGND VPWR VPWR _217_/Y sky130_fd_sc_hd__inv_2
XFILLER_19_126 VGND VGND VPWR VPWR sky130_fd_sc_hd__decap_8
X_148_ _144_/X wb_dat_o[25] _146_/X _262_/A VGND VGND VPWR VPWR _148_/X sky130_fd_sc_hd__o22a_4
XFILLER_10_41 VGND VGND VPWR VPWR sky130_fd_sc_hd__decap_8
XFILLER_33_184 VGND VGND VPWR VPWR sky130_fd_sc_hd__decap_12
XFILLER_25_3 VGND VGND VPWR VPWR sky130_fd_sc_hd__decap_12
XFILLER_18_170 VGND VGND VPWR VPWR sky130_fd_sc_hd__fill_1
XPHY_179 VGND VPWR sky130_fd_sc_hd__tapvpwrvgnd_1
XPHY_168 VGND VPWR sky130_fd_sc_hd__tapvpwrvgnd_1
XPHY_157 VGND VPWR sky130_fd_sc_hd__tapvpwrvgnd_1
XPHY_146 VGND VPWR sky130_fd_sc_hd__tapvpwrvgnd_1
XFILLER_21_62 VGND VGND VPWR VPWR sky130_fd_sc_hd__decap_3
XPHY_135 VGND VPWR sky130_fd_sc_hd__tapvpwrvgnd_1
XPHY_124 VGND VPWR sky130_fd_sc_hd__tapvpwrvgnd_1
XPHY_102 VGND VPWR sky130_fd_sc_hd__tapvpwrvgnd_1
XPHY_113 VGND VPWR sky130_fd_sc_hd__tapvpwrvgnd_1
XFILLER_30_154 VGND VGND VPWR VPWR sky130_fd_sc_hd__decap_12
XPHY_4 VGND VGND VPWR VPWR sky130_fd_sc_hd__decap_3
XFILLER_16_84 VGND VGND VPWR VPWR sky130_fd_sc_hd__decap_8
XFILLER_16_62 VGND VGND VPWR VPWR sky130_fd_sc_hd__decap_8
XFILLER_16_40 VGND VGND VPWR VPWR sky130_fd_sc_hd__decap_8
XFILLER_12_132 VGND VGND VPWR VPWR sky130_fd_sc_hd__decap_8
XFILLER_12_143 VGND VGND VPWR VPWR sky130_fd_sc_hd__decap_8
XFILLER_26_202 VGND VGND VPWR VPWR sky130_fd_sc_hd__decap_4
XFILLER_23_205 VGND VGND VPWR VPWR sky130_fd_sc_hd__fill_2
XFILLER_4_32 VGND VGND VPWR VPWR sky130_fd_sc_hd__fill_2
X_250_ _250_/A VGND VGND VPWR VPWR _250_/Y sky130_fd_sc_hd__inv_2
X_181_ _151_/A wb_dat_o[0] _138_/A _201_/A VGND VGND VPWR VPWR _300_/D sky130_fd_sc_hd__o22a_4
XFILLER_1_175 VGND VGND VPWR VPWR sky130_fd_sc_hd__decap_8
X_164_ _158_/X wb_dat_o[13] _160_/X _289_/Q VGND VGND VPWR VPWR _313_/D sky130_fd_sc_hd__o22a_4
X_233_ _231_/Y _227_/X wb_dat_i[21] _232_/X VGND VGND VPWR VPWR _281_/D sky130_fd_sc_hd__a2bb2o_4
X_302_ wb_clk_i _302_/D VGND VGND VPWR VPWR wb_dat_o[2] sky130_fd_sc_hd__dfxtp_4
XFILLER_28_105 VGND VGND VPWR VPWR sky130_fd_sc_hd__decap_12
XFILLER_27_171 VGND VGND VPWR VPWR sky130_fd_sc_hd__decap_12
XFILLER_33_196 VGND VGND VPWR VPWR sky130_fd_sc_hd__decap_8
XFILLER_18_3 VGND VGND VPWR VPWR sky130_fd_sc_hd__decap_8
X_147_ _144_/X wb_dat_o[26] _146_/X _259_/A VGND VGND VPWR VPWR _147_/X sky130_fd_sc_hd__o22a_4
X_216_ _215_/Y _211_/X wb_dat_i[11] _211_/X VGND VGND VPWR VPWR _287_/D sky130_fd_sc_hd__a2bb2o_4
XPHY_169 VGND VPWR sky130_fd_sc_hd__tapvpwrvgnd_1
XPHY_158 VGND VPWR sky130_fd_sc_hd__tapvpwrvgnd_1
XFILLER_24_152 VGND VGND VPWR VPWR sky130_fd_sc_hd__fill_1
XPHY_147 VGND VPWR sky130_fd_sc_hd__tapvpwrvgnd_1
XFILLER_21_85 VGND VGND VPWR VPWR sky130_fd_sc_hd__fill_2
XPHY_136 VGND VPWR sky130_fd_sc_hd__tapvpwrvgnd_1
XPHY_125 VGND VPWR sky130_fd_sc_hd__tapvpwrvgnd_1
XPHY_114 VGND VPWR sky130_fd_sc_hd__tapvpwrvgnd_1
XPHY_103 VGND VPWR sky130_fd_sc_hd__tapvpwrvgnd_1
XFILLER_30_166 VGND VGND VPWR VPWR sky130_fd_sc_hd__decap_12
XFILLER_15_196 VGND VGND VPWR VPWR sky130_fd_sc_hd__decap_8
XPHY_5 VGND VGND VPWR VPWR sky130_fd_sc_hd__decap_3
XFILLER_21_199 VGND VGND VPWR VPWR sky130_fd_sc_hd__decap_8
XFILLER_21_188 VGND VGND VPWR VPWR sky130_fd_sc_hd__decap_8
XFILLER_32_206 VGND VGND VPWR VPWR sky130_fd_sc_hd__fill_1
XFILLER_27_62 VGND VGND VPWR VPWR sky130_fd_sc_hd__decap_12
XFILLER_27_51 VGND VGND VPWR VPWR sky130_fd_sc_hd__decap_8
X_180_ _151_/A wb_dat_o[1] _138_/A _199_/A VGND VGND VPWR VPWR _301_/D sky130_fd_sc_hd__o22a_4
XFILLER_13_31 VGND VGND VPWR VPWR sky130_fd_sc_hd__decap_8
XFILLER_13_53 VGND VGND VPWR VPWR sky130_fd_sc_hd__decap_8
XFILLER_1_198 VGND VGND VPWR VPWR sky130_fd_sc_hd__decap_8
X_163_ _158_/X wb_dat_o[14] _160_/X _208_/A VGND VGND VPWR VPWR _314_/D sky130_fd_sc_hd__o22a_4
X_232_ _239_/A VGND VGND VPWR VPWR _232_/X sky130_fd_sc_hd__buf_8
X_301_ wb_clk_i _301_/D VGND VGND VPWR VPWR wb_dat_o[1] sky130_fd_sc_hd__dfxtp_4
XFILLER_28_117 VGND VGND VPWR VPWR sky130_fd_sc_hd__decap_12
X_215_ _215_/A VGND VGND VPWR VPWR _215_/Y sky130_fd_sc_hd__inv_2
X_146_ _138_/A VGND VGND VPWR VPWR _146_/X sky130_fd_sc_hd__buf_2
XPHY_159 VGND VPWR sky130_fd_sc_hd__tapvpwrvgnd_1
XPHY_148 VGND VPWR sky130_fd_sc_hd__tapvpwrvgnd_1
XFILLER_24_120 VGND VGND VPWR VPWR sky130_fd_sc_hd__decap_12
XPHY_137 VGND VPWR sky130_fd_sc_hd__tapvpwrvgnd_1
XPHY_126 VGND VPWR sky130_fd_sc_hd__tapvpwrvgnd_1
XPHY_104 VGND VPWR sky130_fd_sc_hd__tapvpwrvgnd_1
XPHY_115 VGND VPWR sky130_fd_sc_hd__tapvpwrvgnd_1
XFILLER_30_178 VGND VGND VPWR VPWR sky130_fd_sc_hd__decap_12
XFILLER_15_175 VGND VGND VPWR VPWR sky130_fd_sc_hd__decap_8
XFILLER_15_131 VGND VGND VPWR VPWR sky130_fd_sc_hd__fill_1
XPHY_6 VGND VGND VPWR VPWR sky130_fd_sc_hd__decap_3
XFILLER_30_3 VGND VGND VPWR VPWR sky130_fd_sc_hd__decap_12
XFILLER_16_97 VGND VGND VPWR VPWR sky130_fd_sc_hd__decap_8
XFILLER_17_204 VGND VGND VPWR VPWR sky130_fd_sc_hd__decap_3
XFILLER_5_119 VGND VGND VPWR VPWR sky130_fd_sc_hd__decap_3
XFILLER_27_74 VGND VGND VPWR VPWR sky130_fd_sc_hd__decap_12
XFILLER_4_23 VGND VGND VPWR VPWR sky130_fd_sc_hd__decap_8
XFILLER_4_196 VGND VGND VPWR VPWR sky130_fd_sc_hd__decap_8
XFILLER_8_3 VGND VGND VPWR VPWR sky130_fd_sc_hd__decap_4
X_231_ _231_/A VGND VGND VPWR VPWR _231_/Y sky130_fd_sc_hd__inv_2
X_162_ _158_/X wb_dat_o[15] _160_/X _291_/Q VGND VGND VPWR VPWR _315_/D sky130_fd_sc_hd__o22a_4
X_300_ wb_clk_i _300_/D VGND VGND VPWR VPWR wb_dat_o[0] sky130_fd_sc_hd__dfxtp_4
XFILLER_28_129 VGND VGND VPWR VPWR sky130_fd_sc_hd__decap_12
XFILLER_3_206 VGND VGND VPWR VPWR sky130_fd_sc_hd__fill_1
XFILLER_27_184 VGND VGND VPWR VPWR sky130_fd_sc_hd__decap_12
X_145_ _144_/X wb_dat_o[27] _138_/X _257_/A VGND VGND VPWR VPWR _145_/X sky130_fd_sc_hd__o22a_4
X_214_ _213_/Y _211_/X wb_dat_i[12] _211_/X VGND VGND VPWR VPWR _288_/D sky130_fd_sc_hd__a2bb2o_4
XFILLER_33_110 VGND VGND VPWR VPWR sky130_fd_sc_hd__decap_12
XFILLER_24_132 VGND VGND VPWR VPWR sky130_fd_sc_hd__decap_12
XFILLER_18_162 VGND VGND VPWR VPWR sky130_fd_sc_hd__decap_8
XPHY_105 VGND VPWR sky130_fd_sc_hd__tapvpwrvgnd_1
XPHY_116 VGND VPWR sky130_fd_sc_hd__tapvpwrvgnd_1
XPHY_149 VGND VPWR sky130_fd_sc_hd__tapvpwrvgnd_1
XFILLER_24_176 VGND VGND VPWR VPWR sky130_fd_sc_hd__decap_12
XFILLER_24_154 VGND VGND VPWR VPWR sky130_fd_sc_hd__decap_12
XPHY_138 VGND VPWR sky130_fd_sc_hd__tapvpwrvgnd_1
XPHY_127 VGND VPWR sky130_fd_sc_hd__tapvpwrvgnd_1
XPHY_7 VGND VGND VPWR VPWR sky130_fd_sc_hd__decap_3
XFILLER_23_3 VGND VGND VPWR VPWR sky130_fd_sc_hd__decap_12
XFILLER_21_135 VGND VGND VPWR VPWR sky130_fd_sc_hd__decap_12
XFILLER_7_45 VGND VGND VPWR VPWR sky130_fd_sc_hd__decap_12
XFILLER_16_32 VGND VGND VPWR VPWR sky130_fd_sc_hd__decap_4
XFILLER_8_139 VGND VGND VPWR VPWR sky130_fd_sc_hd__decap_12
XFILLER_27_86 VGND VGND VPWR VPWR sky130_fd_sc_hd__decap_12
XFILLER_1_123 VGND VGND VPWR VPWR sky130_fd_sc_hd__decap_6
XFILLER_13_88 VGND VGND VPWR VPWR sky130_fd_sc_hd__decap_8
XFILLER_24_32 VGND VGND VPWR VPWR sky130_fd_sc_hd__decap_12
X_161_ _158_/X wb_dat_o[16] _160_/X _243_/A VGND VGND VPWR VPWR _161_/X sky130_fd_sc_hd__o22a_4
X_230_ _229_/Y _227_/X wb_dat_i[22] _227_/X VGND VGND VPWR VPWR _282_/D sky130_fd_sc_hd__a2bb2o_4
XFILLER_10_23 VGND VGND VPWR VPWR sky130_fd_sc_hd__decap_8
XFILLER_10_78 VGND VGND VPWR VPWR sky130_fd_sc_hd__fill_2
XFILLER_27_196 VGND VGND VPWR VPWR sky130_fd_sc_hd__decap_8
X_144_ _151_/A VGND VGND VPWR VPWR _144_/X sky130_fd_sc_hd__buf_8
XFILLER_19_98 VGND VGND VPWR VPWR sky130_fd_sc_hd__fill_2
X_213_ _213_/A VGND VGND VPWR VPWR _213_/Y sky130_fd_sc_hd__inv_2
XFILLER_19_65 VGND VGND VPWR VPWR sky130_fd_sc_hd__decap_12
XFILLER_24_188 VGND VGND VPWR VPWR sky130_fd_sc_hd__fill_1
XFILLER_24_166 VGND VGND VPWR VPWR sky130_fd_sc_hd__decap_6
XFILLER_24_144 VGND VGND VPWR VPWR sky130_fd_sc_hd__decap_8
XPHY_139 VGND VPWR sky130_fd_sc_hd__tapvpwrvgnd_1
XFILLER_21_77 VGND VGND VPWR VPWR sky130_fd_sc_hd__decap_8
XPHY_128 VGND VPWR sky130_fd_sc_hd__tapvpwrvgnd_1
XPHY_106 VGND VPWR sky130_fd_sc_hd__tapvpwrvgnd_1
XPHY_117 VGND VPWR sky130_fd_sc_hd__tapvpwrvgnd_1
XFILLER_16_3 VGND VGND VPWR VPWR sky130_fd_sc_hd__decap_6
XPHY_8 VGND VGND VPWR VPWR sky130_fd_sc_hd__decap_3
XFILLER_7_57 VGND VGND VPWR VPWR sky130_fd_sc_hd__decap_4
XFILLER_21_147 VGND VGND VPWR VPWR sky130_fd_sc_hd__fill_1
XFILLER_21_114 VGND VGND VPWR VPWR sky130_fd_sc_hd__decap_8
XFILLER_32_32 VGND VGND VPWR VPWR sky130_fd_sc_hd__decap_12
XFILLER_26_206 VGND VGND VPWR VPWR sky130_fd_sc_hd__fill_1
XFILLER_27_98 VGND VGND VPWR VPWR sky130_fd_sc_hd__decap_12
XFILLER_4_154 VGND VGND VPWR VPWR sky130_fd_sc_hd__fill_1
XFILLER_24_44 VGND VGND VPWR VPWR sky130_fd_sc_hd__decap_12
XFILLER_1_37 VGND VGND VPWR VPWR sky130_fd_sc_hd__decap_12
X_160_ wb_rst_i VGND VGND VPWR VPWR _160_/X sky130_fd_sc_hd__buf_2
X_289_ wb_clk_i _289_/D VGND VGND VPWR VPWR _289_/Q sky130_fd_sc_hd__dfxtp_4
XFILLER_19_77 VGND VGND VPWR VPWR sky130_fd_sc_hd__fill_1
X_212_ _210_/Y _206_/X wb_dat_i[13] _211_/X VGND VGND VPWR VPWR _289_/D sky130_fd_sc_hd__a2bb2o_4
X_143_ _165_/A VGND VGND VPWR VPWR _151_/A sky130_fd_sc_hd__buf_8
XFILLER_33_123 VGND VGND VPWR VPWR sky130_fd_sc_hd__decap_12
XFILLER_21_34 VGND VGND VPWR VPWR sky130_fd_sc_hd__decap_3
XPHY_129 VGND VPWR sky130_fd_sc_hd__tapvpwrvgnd_1
XPHY_118 VGND VPWR sky130_fd_sc_hd__tapvpwrvgnd_1
XPHY_107 VGND VPWR sky130_fd_sc_hd__tapvpwrvgnd_1
XFILLER_15_123 VGND VGND VPWR VPWR sky130_fd_sc_hd__decap_8
XPHY_9 VGND VGND VPWR VPWR sky130_fd_sc_hd__decap_3
XFILLER_29_204 VGND VGND VPWR VPWR sky130_fd_sc_hd__decap_3